(PID.TID 0000.0001) 
(PID.TID 0000.0001) // ======================================================
(PID.TID 0000.0001) //                      MITgcm UV
(PID.TID 0000.0001) //                      =========
(PID.TID 0000.0001) // ======================================================
(PID.TID 0000.0001) // execution environment starting up...
(PID.TID 0000.0001) 
(PID.TID 0000.0001) // MITgcmUV version:  checkpoint65h
(PID.TID 0000.0001) // Build user:        jmc
(PID.TID 0000.0001) // Build host:        baudelaire
(PID.TID 0000.0001) // Build date:        Wed Jan 21 10:17:42 EST 2015
(PID.TID 0000.0001) 
(PID.TID 0000.0001) // =======================================================
(PID.TID 0000.0001) // Execution Environment parameter file "eedata"
(PID.TID 0000.0001) // =======================================================
(PID.TID 0000.0001) ># Example "eedata" file
(PID.TID 0000.0001) ># Lines beginning "#" are comments
(PID.TID 0000.0001) ># nTx - No. threads per process in X
(PID.TID 0000.0001) ># nTy - No. threads per process in Y
(PID.TID 0000.0001) > &EEPARMS
(PID.TID 0000.0001) > useCoupler=.TRUE.,
(PID.TID 0000.0001) > useCubedSphereExchange=.TRUE.,
(PID.TID 0000.0001) > nTx=1,
(PID.TID 0000.0001) > nTy=1,
(PID.TID 0000.0001) >#debugMode=.TRUE.,
(PID.TID 0000.0001) > /
(PID.TID 0000.0001) ># Note: Some systems use & as the namelist terminator (as shown here).
(PID.TID 0000.0001) >#       Other systems use a / character.
(PID.TID 0000.0001) 
(PID.TID 0000.0001) // =======================================================
(PID.TID 0000.0001) // Computational Grid Specification ( see files "SIZE.h" )
(PID.TID 0000.0001) //                                  ( and "eedata"       )
(PID.TID 0000.0001) // =======================================================
(PID.TID 0000.0001)      nPx =    1 ; /* No. processes in X */
(PID.TID 0000.0001)      nPy =    1 ; /* No. processes in Y */
(PID.TID 0000.0001)      nSx =    6 ; /* No. tiles in X per process */
(PID.TID 0000.0001)      nSy =    1 ; /* No. tiles in Y per process */
(PID.TID 0000.0001)      sNx =   32 ; /* Tile size in X */
(PID.TID 0000.0001)      sNy =   32 ; /* Tile size in Y */
(PID.TID 0000.0001)      OLx =    4 ; /* Tile overlap distance in X */
(PID.TID 0000.0001)      OLy =    4 ; /* Tile overlap distance in Y */
(PID.TID 0000.0001)      nTx =    1 ; /* No. threads in X per process */
(PID.TID 0000.0001)      nTy =    1 ; /* No. threads in Y per process */
(PID.TID 0000.0001)       Nr =   26 ; /* No. levels in the vertical   */
(PID.TID 0000.0001)       Nx =  192 ; /* Total domain size in X ( = nPx*nSx*sNx ) */
(PID.TID 0000.0001)       Ny =   32 ; /* Total domain size in Y ( = nPy*nSy*sNy ) */
(PID.TID 0000.0001)   nTiles =    6 ; /* Total no. tiles per process ( = nSx*nSy ) */
(PID.TID 0000.0001)   nProcs =    1 ; /* Total no. processes ( = nPx*nPy ) */
(PID.TID 0000.0001) nThreads =    1 ; /* Total no. threads per process ( = nTx*nTy ) */
(PID.TID 0000.0001) usingMPI =    T ; /* Flag used to control whether MPI is in use */
(PID.TID 0000.0001)                   /*  note: To execute a program with MPI calls */
(PID.TID 0000.0001)                   /*  it must be launched appropriately e.g     */
(PID.TID 0000.0001)                   /*  "mpirun -np 64 ......"                    */
(PID.TID 0000.0001) useCoupler=    T ;/* Flag used to control communications with   */
(PID.TID 0000.0001)                   /*  other model components, through a coupler */
(PID.TID 0000.0001) debugMode =    F ; /* print debug msg. (sequence of S/R calls)  */
(PID.TID 0000.0001) printMapIncludesZeros=    F ; /* print zeros in Std.Output maps */
(PID.TID 0000.0001) maxLengthPrt1D=   65 /* maxLength of 1D array printed to StdOut */
(PID.TID 0000.0001) 
(PID.TID 0000.0001) ======= Starting MPI parallel Run =========
(PID.TID 0000.0001)  My Processor Name (len: 10 ) = baudelaire
(PID.TID 0000.0001)  Located at (  0,  0) on processor grid (0:  0,0:  0)
(PID.TID 0000.0001)  Origin at  (     1,     1) on global grid (1:   192,1:    32)
(PID.TID 0000.0001)  North neighbor = processor 0000
(PID.TID 0000.0001)  South neighbor = processor 0000
(PID.TID 0000.0001)   East neighbor = processor 0000
(PID.TID 0000.0001)   West neighbor = processor 0000
(PID.TID 0000.0001) // ======================================================
(PID.TID 0000.0001) // Mapping of tiles to threads
(PID.TID 0000.0001) // ======================================================
(PID.TID 0000.0001) // -o- Thread   1, tiles (   1:   6,   1:   1)
(PID.TID 0000.0001) 
(PID.TID 0000.0001) W2_READPARMS: file data.exch2 not found
(PID.TID 0000.0001) => use W2_EXCH2 default: regular 6-facets Cube
(PID.TID 0000.0001) W2_useE2ioLayOut=    T ;/* T: use Exch2 glob IO map; F: use model default */
(PID.TID 0000.0001) W2_mapIO        =  -1 ; /* select option for Exch2 global-IO map */
(PID.TID 0000.0001) W2_printMsg     =  -1 ; /* select option for printing information */
(PID.TID 0000.0001) ===== Start setting W2 TOPOLOGY:
(PID.TID 0000.0001)  write to log-file: w2_tile_topology.0000.log
(PID.TID 0000.0001) =====       setting W2 TOPOLOGY: Done
(PID.TID 0000.0001) 
(PID.TID 0000.0001)  INI_PARMS: opening model parameter file "data"
(PID.TID 0000.0001)  OPEN_COPY_DATA_FILE: opening file data
(PID.TID 0000.0001) // =======================================================
(PID.TID 0000.0001) // Parameter file "data"
(PID.TID 0000.0001) // =======================================================
(PID.TID 0000.0001) ># ====================
(PID.TID 0000.0001) ># | Model parameters |
(PID.TID 0000.0001) ># ====================
(PID.TID 0000.0001) >#
(PID.TID 0000.0001) ># Continuous equation parameters
(PID.TID 0000.0001) > &PARM01
(PID.TID 0000.0001) >#- mean theta* from H&S, isothermal (T=200.K) above p=150.mb:
(PID.TID 0000.0001) > tRef= 295.1, 295.2, 295.4, 295.6, 296.0, 296.6, 297.3, 298.2, 299.3, 300.6,
(PID.TID 0000.0001) >       302.4, 305.9, 311.8, 321.8, 338.3, 359.5, 382.8, 408.6, 437.5, 470.6,
(PID.TID 0000.0001) >       509.2, 555.8, 614.9, 696.3, 827.2, 1153.6,
(PID.TID 0000.0001) >#tRef=26*280.,
(PID.TID 0000.0001) > sRef=26*0.,
(PID.TID 0000.0001) > viscAr=0.E1,
(PID.TID 0000.0001) > viscAh=0.E6,
(PID.TID 0000.0001) > viscA4=0.E17,
(PID.TID 0000.0001) > no_slip_sides=.FALSE.,
(PID.TID 0000.0001) > no_slip_bottom=.FALSE.,
(PID.TID 0000.0001) > diffKhT=0.E3,
(PID.TID 0000.0001) > diffKrT=0.,
(PID.TID 0000.0001) > diffK4T=0.E17,
(PID.TID 0000.0001) > diffKrS=0.E2,
(PID.TID 0000.0001) > diffKhS=0.E3,
(PID.TID 0000.0001) > diffK4S=0.E17,
(PID.TID 0000.0001) > buoyancyRelation='ATMOSPHERIC',
(PID.TID 0000.0001) > eosType='IDEALG',
(PID.TID 0000.0001) > atm_Cp=1004.64,
(PID.TID 0000.0001) > atm_Rq=0.6078,
(PID.TID 0000.0001) > Integr_GeoPot=2,
(PID.TID 0000.0001) > selectFindRoSurf=1,
(PID.TID 0000.0001) > gravity=9.80,
(PID.TID 0000.0001) > rhonil=1.0,
(PID.TID 0000.0001) > rhoConst=1.0,
(PID.TID 0000.0001) > rigidLid=.FALSE.,
(PID.TID 0000.0001) > implicitFreeSurface=.TRUE.,
(PID.TID 0000.0001) > exactConserv=.TRUE.,
(PID.TID 0000.0001) > select_rStar=2,
(PID.TID 0000.0001) > nonlinFreeSurf=4,
(PID.TID 0000.0001) > hFacInf=0.2,
(PID.TID 0000.0001) > hFacSup=2.0,
(PID.TID 0000.0001) > hFacMin=1.0,
(PID.TID 0000.0001) > uniformLin_PhiSurf=.FALSE.,
(PID.TID 0000.0001) > vectorInvariantMomentum=.TRUE.,
(PID.TID 0000.0001) > useAbsVorticity=.TRUE.,
(PID.TID 0000.0001) > selectVortScheme=3,
(PID.TID 0000.0001) > selectKEscheme=3,
(PID.TID 0000.0001) > addFrictionHeating=.TRUE.,
(PID.TID 0000.0001) >#tempAdvScheme=77,
(PID.TID 0000.0001) > saltAdvScheme=77,
(PID.TID 0000.0001) > staggerTimeStep=.TRUE.,
(PID.TID 0000.0001) > readBinaryPrec=64,
(PID.TID 0000.0001) > writeBinaryPrec=64,
(PID.TID 0000.0001) >#globalFiles=.TRUE.,
(PID.TID 0000.0001) >#useSingleCpuIO=.TRUE.,
(PID.TID 0000.0001) > /
(PID.TID 0000.0001) >
(PID.TID 0000.0001) ># Elliptic solver parameters
(PID.TID 0000.0001) > &PARM02
(PID.TID 0000.0001) > cg2dMaxIters=200,
(PID.TID 0000.0001) > cg2dTargetResWunit=1.E-17,
(PID.TID 0000.0001) > /
(PID.TID 0000.0001) >
(PID.TID 0000.0001) ># Time stepping parameters
(PID.TID 0000.0001) > &PARM03
(PID.TID 0000.0001) > nIter0=0,
(PID.TID 0000.0001) ># 10.yrs or 8.yrs:
(PID.TID 0000.0001) >#nTimeSteps=864000,
(PID.TID 0000.0001) > nTimeSteps=691200,
(PID.TID 0000.0001) >#endTime=311040000.,
(PID.TID 0000.0001) >#endTime=5184000.,
(PID.TID 0000.0001) > deltaT=360.,
(PID.TID 0000.0001) > abEps=0.1,
(PID.TID 0000.0001) > forcing_In_AB=.FALSE.,
(PID.TID 0000.0001) > cAdjFreq=0.,
(PID.TID 0000.0001) >#- long run (> 1.yr):
(PID.TID 0000.0001) >#pChkptFreq =311040000.,
(PID.TID 0000.0001) >#chkptFreq  = 77760000.,
(PID.TID 0000.0001) > pChkptFreq =248832000.,
(PID.TID 0000.0001) > chkptFreq  = 62208000.,
(PID.TID 0000.0001) > dumpFreq   = 31104000.,
(PID.TID 0000.0001) > monitorFreq= 2592000.,
(PID.TID 0000.0001) >#- short run (~ months):
(PID.TID 0000.0001) >#pChkptFreq = 2592000.,
(PID.TID 0000.0001) >#chkptFreq  =  864000.,
(PID.TID 0000.0001) >#dumpFreq   =  432000.,
(PID.TID 0000.0001) >#monitorFreq=  43200.,
(PID.TID 0000.0001) >#- short test:
(PID.TID 0000.0001) > nTimeSteps=40,
(PID.TID 0000.0001) >#dumpFreq   =1.,
(PID.TID 0000.0001) > monitorFreq=1.,
(PID.TID 0000.0001) > /
(PID.TID 0000.0001) >
(PID.TID 0000.0001) ># Gridding parameters
(PID.TID 0000.0001) > &PARM04
(PID.TID 0000.0001) > usingCurvilinearGrid=.TRUE.,
(PID.TID 0000.0001) > horizGridFile='dxC1_dXYa',
(PID.TID 0000.0001) > radius_fromHorizGrid=6370.E3,
(PID.TID 0000.0001) >#delR=25*40.E2,
(PID.TID 0000.0001) > delR= 1500., 2122., 3000., 4242., 6000., 7800., 9100., 9400., 9280., 8400.,
(PID.TID 0000.0001) >       6980., 5800., 4820., 4004., 3328., 2766., 2298., 1910., 1586., 1318.,
(PID.TID 0000.0001) >       1096.,  910.,  756.,  628.,  522.,  434.,
(PID.TID 0000.0001) > Ro_SeaLevel=1.E5,
(PID.TID 0000.0001) > /
(PID.TID 0000.0001) >
(PID.TID 0000.0001) ># Input datasets
(PID.TID 0000.0001) > &PARM05
(PID.TID 0000.0001) > hydrogThetaFile='ini_theta_26l.bin',
(PID.TID 0000.0001) > hydrogSaltFile ='ini_specQ_26l.bin',
(PID.TID 0000.0001) > /
(PID.TID 0000.0001) 
(PID.TID 0000.0001)  INI_PARMS ; starts to read PARM01
(PID.TID 0000.0001)  INI_PARMS ; read PARM01 : OK
(PID.TID 0000.0001)  INI_PARMS ; starts to read PARM02
(PID.TID 0000.0001)  INI_PARMS ; read PARM02 : OK
(PID.TID 0000.0001)  INI_PARMS ; starts to read PARM03
(PID.TID 0000.0001)  INI_PARMS ; read PARM03 : OK
(PID.TID 0000.0001)  INI_PARMS ; starts to read PARM04
(PID.TID 0000.0001)  INI_PARMS ; read PARM04 : OK
(PID.TID 0000.0001)  INI_PARMS ; starts to read PARM05
(PID.TID 0000.0001)  INI_PARMS ; read PARM05 : OK
(PID.TID 0000.0001)  INI_PARMS: finished reading file "data"
(PID.TID 0000.0001)  PACKAGES_BOOT: opening data.pkg
(PID.TID 0000.0001)  OPEN_COPY_DATA_FILE: opening file data.pkg
(PID.TID 0000.0001) // =======================================================
(PID.TID 0000.0001) // Parameter file "data.pkg"
(PID.TID 0000.0001) // =======================================================
(PID.TID 0000.0001) ># Packages
(PID.TID 0000.0001) > &PACKAGES
(PID.TID 0000.0001) > useSHAP_FILT=.TRUE.,
(PID.TID 0000.0001) > useDiagnostics=.TRUE.,
(PID.TID 0000.0001) > useAtm_Phys=.TRUE.,
(PID.TID 0000.0001) >#useMNC = .TRUE.,
(PID.TID 0000.0001) > /
(PID.TID 0000.0001) 
(PID.TID 0000.0001)  PACKAGES_BOOT: finished reading data.pkg
(PID.TID 0000.0001)  PACKAGES_BOOT: On/Off package Summary
 --------  pkgs with a standard "usePKG" On/Off switch in "data.pkg":  --------
 pkg/shap_filt            compiled   and   used ( useSHAP_FILT             = T )
 pkg/atm_phys             compiled   and   used ( useAtm_Phys              = T )
 pkg/diagnostics          compiled   and   used ( useDiagnostics           = T )
 -------- pkgs without standard "usePKG" On/Off switch in "data.pkg":  --------
 pkg/generic_advdiff      compiled   and   used ( useGAD                   = T )
 pkg/mom_common           compiled   and   used ( momStepping              = T )
 pkg/mom_vecinv           compiled   and   used ( +vectorInvariantMomentum = T )
 pkg/mom_fluxform         compiled but not used ( & not vectorInvariantMom = F )
 pkg/monitor              compiled   and   used ( monitorFreq > 0.         = T )
 pkg/debug                compiled but not used ( debugMode                = F )
 pkg/compon_communic      compiled   and   used ( useCoupler               = T )
 pkg/atm_compon_interf    compiled   and   used ( useCoupler               = T )
 pkg/exch2                compiled   and   used
 pkg/rw                   compiled   and   used
 pkg/mdsio                compiled   and   used
(PID.TID 0000.0001)  PACKAGES_BOOT: End of package Summary
(PID.TID 0000.0001) 
(PID.TID 0000.0001)  SHAP_FILT_READPARMS: opening data.shap
(PID.TID 0000.0001)  OPEN_COPY_DATA_FILE: opening file data.shap
(PID.TID 0000.0001) // =======================================================
(PID.TID 0000.0001) // Parameter file "data.shap"
(PID.TID 0000.0001) // =======================================================
(PID.TID 0000.0001) ># Shapiro Filter parameters
(PID.TID 0000.0001) > &SHAP_PARM01
(PID.TID 0000.0001) > shap_filt_uvStar=.FALSE.,
(PID.TID 0000.0001) > shap_filt_TrStagg=.TRUE.,
(PID.TID 0000.0001) > Shap_funct=2,
(PID.TID 0000.0001) > nShapT=4,
(PID.TID 0000.0001) > nShapS=0,
(PID.TID 0000.0001) > nShapUV=4,
(PID.TID 0000.0001) > nShapTrPhys=1,
(PID.TID 0000.0001) > nShapUVPhys=0,
(PID.TID 0000.0001) > Shap_TrLength=140000.,
(PID.TID 0000.0001) >#Shap_TrLength=115000.,
(PID.TID 0000.0001) >#Shap_uvLength=110000.,
(PID.TID 0000.0001) >#Shap_Trtau=5400.,
(PID.TID 0000.0001) >#Shap_uvtau=5400.,
(PID.TID 0000.0001) > Shap_Trtau=1800.,
(PID.TID 0000.0001) > Shap_uvtau= 900.,
(PID.TID 0000.0001) > /
(PID.TID 0000.0001) >
(PID.TID 0000.0001) 
(PID.TID 0000.0001)  SHAP_FILT_READPARMS: finished reading data.shap
(PID.TID 0000.0001) Shap_funct =   /* select Shapiro filter function */
(PID.TID 0000.0001)                       2
(PID.TID 0000.0001)     ;
(PID.TID 0000.0001) nShapT =   /* power of Shapiro filter for Temperat */
(PID.TID 0000.0001)                       4
(PID.TID 0000.0001)     ;
(PID.TID 0000.0001) nShapS =   /* power of Shapiro filter for Salinity */
(PID.TID 0000.0001)                       0
(PID.TID 0000.0001)     ;
(PID.TID 0000.0001) nShapUV =   /* power of Shapiro filter for momentum */
(PID.TID 0000.0001)                       4
(PID.TID 0000.0001)     ;
(PID.TID 0000.0001) shap_filt_uvStar = /* apply filter before Press. Solver */
(PID.TID 0000.0001)                   F
(PID.TID 0000.0001)     ;
(PID.TID 0000.0001) shap_filt_TrStagg = /* filter T,S before calc PhiHyd (staggerTimeStep) */
(PID.TID 0000.0001)                   T
(PID.TID 0000.0001)     ;
(PID.TID 0000.0001) Shap_alwaysExchUV = /* always exch(U,V)    nShapUV times*/
(PID.TID 0000.0001)                   F
(PID.TID 0000.0001)     ;
(PID.TID 0000.0001) Shap_alwaysExchTr = /* always exch(Tracer) nShapTr times*/
(PID.TID 0000.0001)                   F
(PID.TID 0000.0001)     ;
(PID.TID 0000.0001) nShapTrPhys =   /* power of physical-space filter (Tracer) */
(PID.TID 0000.0001)                       1
(PID.TID 0000.0001)     ;
(PID.TID 0000.0001) nShapUVPhys =   /* power of physical-space filter (Momentum) */
(PID.TID 0000.0001)                       0
(PID.TID 0000.0001)     ;
(PID.TID 0000.0001) Shap_Trtau =   /* time scale of Shapiro filter (Tracer) */
(PID.TID 0000.0001)                 1.800000000000000E+03
(PID.TID 0000.0001)     ;
(PID.TID 0000.0001) Shap_TrLength =   /* Length scale of Shapiro filter (Tracer) */
(PID.TID 0000.0001)                 1.400000000000000E+05
(PID.TID 0000.0001)     ;
(PID.TID 0000.0001) Shap_uvtau =   /* time scale of Shapiro filter (Momentum) */
(PID.TID 0000.0001)                 9.000000000000000E+02
(PID.TID 0000.0001)     ;
(PID.TID 0000.0001) Shap_uvLength =   /* Length scale of Shapiro filter (Momentum) */
(PID.TID 0000.0001)                 0.000000000000000E+00
(PID.TID 0000.0001)     ;
(PID.TID 0000.0001) Shap_noSlip =  /* No-slip parameter (0=Free-slip ; 1=No-slip)*/
(PID.TID 0000.0001)                 0.000000000000000E+00
(PID.TID 0000.0001)     ;
(PID.TID 0000.0001) Shap_diagFreq =   /* Frequency^-1 for diagnostic output (s)*/
(PID.TID 0000.0001)                 0.000000000000000E+00
(PID.TID 0000.0001)     ;
(PID.TID 0000.0001) ATM_PHYS_READPARMS: opening data.atm_phys
(PID.TID 0000.0001)  OPEN_COPY_DATA_FILE: opening file data.atm_phys
(PID.TID 0000.0001) // =======================================================
(PID.TID 0000.0001) // Parameter file "data.atm_phys"
(PID.TID 0000.0001) // =======================================================
(PID.TID 0000.0001) >#
(PID.TID 0000.0001) > &ATM_PHYS_PARM01
(PID.TID 0000.0001) >#atmPhys_addTendT=.FALSE.,
(PID.TID 0000.0001) >#atmPhys_addTendS=.FALSE.,
(PID.TID 0000.0001) >#atmPhys_addTendU=.FALSE.,
(PID.TID 0000.0001) >#atmPhys_addTendV=.FALSE.,
(PID.TID 0000.0001) > atmPhys_tauDampUV = 86400.,
(PID.TID 0000.0001) > atmPhys_dampUVfac = 20*0., 0.125, 0.25, 0.5, 1., 2., 4.,
(PID.TID 0000.0001) >#- initial SST file:
(PID.TID 0000.0001) > atmPhys_SSTFile='SST_APE_1.bin',
(PID.TID 0000.0001) >#- Q-flux file:
(PID.TID 0000.0001) >#atmPhys_QflxFile='Qflux_w90.bin',
(PID.TID 0000.0001) >#- update SST (default = False = keep the same SST):
(PID.TID 0000.0001) >#atmPhys_stepSST=.TRUE.,
(PID.TID 0000.0001) > /
(PID.TID 0000.0001) 
(PID.TID 0000.0001) ATM_PHYS_READPARMS: finished reading data.atm_phys
(PID.TID 0000.0001)  DIAGNOSTICS_READPARMS: opening data.diagnostics
(PID.TID 0000.0001)  OPEN_COPY_DATA_FILE: opening file data.diagnostics
(PID.TID 0000.0001) // =======================================================
(PID.TID 0000.0001) // Parameter file "data.diagnostics"
(PID.TID 0000.0001) // =======================================================
(PID.TID 0000.0001) ># Diagnostic Package Choices
(PID.TID 0000.0001) >#--------------------
(PID.TID 0000.0001) >#  dumpAtLast (logical): always write output at the end of simulation (default=F)
(PID.TID 0000.0001) >#  diag_mnc   (logical): write to NetCDF files (default=useMNC)
(PID.TID 0000.0001) >#--for each output-stream:
(PID.TID 0000.0001) >#  fileName(n) : prefix of the output file name (max 80c long) for outp.stream n
(PID.TID 0000.0001) >#  frequency(n):< 0 : write snap-shot output every |frequency| seconds
(PID.TID 0000.0001) >#               > 0 : write time-average output every frequency seconds
(PID.TID 0000.0001) >#  timePhase(n)     : write at time = timePhase + multiple of |frequency|
(PID.TID 0000.0001) >#    averagingFreq  : frequency (in s) for periodic averaging interval
(PID.TID 0000.0001) >#    averagingPhase : phase     (in s) for periodic averaging interval
(PID.TID 0000.0001) >#    repeatCycle    : number of averaging intervals in 1 cycle
(PID.TID 0000.0001) >#  levels(:,n) : list of levels to write to file (Notes: declared as REAL)
(PID.TID 0000.0001) >#                when this entry is missing, select all common levels of this list
(PID.TID 0000.0001) >#  fields(:,n) : list of selected diagnostics fields (8.c) in outp.stream n
(PID.TID 0000.0001) >#                (see "available_diagnostics.log" file for the full list of diags)
(PID.TID 0000.0001) >#  missing_value(n) : missing value for real-type fields in output file "n"
(PID.TID 0000.0001) >#  fileFlags(n)     : specific code (8c string) for output file "n"
(PID.TID 0000.0001) >#--------------------
(PID.TID 0000.0001) > &DIAGNOSTICS_LIST
(PID.TID 0000.0001) ># dumpAtLast   = .TRUE.,
(PID.TID 0000.0001) ># diag_mnc     = .FALSE.,
(PID.TID 0000.0001) >#--
(PID.TID 0000.0001) >  fields(1:16,1) = 'ETAN    ','ETANSQ  ','DETADT2 ','AtPhCAPE','AtPhCnvP',
(PID.TID 0000.0001) >                   'AtPhLscP','AtPhSens','AtPhEvap','AtPhTauX','AtPhTauY',
(PID.TID 0000.0001) >                   'AtPh_SST','AtPhInSR','AtPhOLR ',
(PID.TID 0000.0001) >                   'AtPhNSSR','AtPhDSLR','AtPhUSLR',
(PID.TID 0000.0001) >   fileName(1) = 'surfDiag',
(PID.TID 0000.0001) ># fileFlags(1) = 'D       ',
(PID.TID 0000.0001) ># frequency(1) = 311040000.,
(PID.TID 0000.0001) >  frequency(1) = 6220800000.,
(PID.TID 0000.0001) >   averagingFreq(1) = 2592000.,
(PID.TID 0000.0001) >     repeatCycle(1) = 12,
(PID.TID 0000.0001) ># frequency(1) = 432000.,
(PID.TID 0000.0001) >  fields(1:20,2) = 'UVEL    ','VVEL    ','WVEL    ','THETA   ','SALT    ',
(PID.TID 0000.0001) >                   'UVELSQ  ','VVELSQ  ','WVELSQ  ','THETASQ ','SALTSQ  ',
(PID.TID 0000.0001) >                   'UVELMASS','VVELMASS','UV_VEL_C','RELHUM  ',
(PID.TID 0000.0001) >                   'ADVx_TH ','ADVy_TH ','ADVr_TH ',
(PID.TID 0000.0001) >                   'ADVx_SLT','ADVy_SLT','ADVr_SLT',
(PID.TID 0000.0001) >#                  'AtPhdTdt','AtPhdQdt','AtPhdUdt','AtPhdVdt',
(PID.TID 0000.0001) >#                  'AtPhdtTg','AtPhdtQg','AtPhDifT','AtPhDifM',
(PID.TID 0000.0001) >#                  'SHAP_dU ','MoistCor',
(PID.TID 0000.0001) >   fileName(2) = 'dynDiag',
(PID.TID 0000.0001) ># frequency(2) = 311040000.,
(PID.TID 0000.0001) >  frequency(2) = 6220800000.,
(PID.TID 0000.0001) >   averagingFreq(2) = 7776000.,
(PID.TID 0000.0001) >  averagingPhase(2) =-2592000.,
(PID.TID 0000.0001) >     repeatCycle(2) = 4,
(PID.TID 0000.0001) ># frequency(2) = 432000.,
(PID.TID 0000.0001) > /
(PID.TID 0000.0001) >
(PID.TID 0000.0001) >#--------------------
(PID.TID 0000.0001) ># Parameter for Diagnostics of per level statistics:
(PID.TID 0000.0001) >#--------------------
(PID.TID 0000.0001) >#  diagSt_mnc (logical): write stat-diags to NetCDF files (default=diag_mnc)
(PID.TID 0000.0001) >#  diagSt_regMaskFile : file containing the region-mask to read-in
(PID.TID 0000.0001) >#  nSetRegMskFile   : number of region-mask sets within the region-mask file
(PID.TID 0000.0001) >#  set_regMask(i)   : region-mask set-index that identifies the region "i"
(PID.TID 0000.0001) >#  val_regMask(i)   : region "i" identifier value in the region mask
(PID.TID 0000.0001) >#--for each output-stream:
(PID.TID 0000.0001) >#  stat_fName(n) : prefix of the output file name (max 80c long) for outp.stream n
(PID.TID 0000.0001) >#  stat_freq(n):< 0 : write snap-shot output every |stat_freq| seconds
(PID.TID 0000.0001) >#               > 0 : write time-average output every stat_freq seconds
(PID.TID 0000.0001) >#  stat_phase(n)    : write at time = stat_phase + multiple of |stat_freq|
(PID.TID 0000.0001) >#  stat_region(:,n) : list of "regions" (default: 1 region only=global)
(PID.TID 0000.0001) >#  stat_fields(:,n) : list of selected diagnostics fields (8.c) in outp.stream n
(PID.TID 0000.0001) >#                (see "available_diagnostics.log" file for the full list of diags)
(PID.TID 0000.0001) >#--------------------
(PID.TID 0000.0001) > &DIAG_STATIS_PARMS
(PID.TID 0000.0001) > stat_fields(1:11,1) = 'ETAN    ','THETA   ','SALT    ','RELHUM  ',
(PID.TID 0000.0001) >                       'UE_VEL_C','VN_VEL_C','WVEL    ',
(PID.TID 0000.0001) >                       'AtPhdTdt','AtPhdQdt','AtPhdUdt','AtPhdVdt',
(PID.TID 0000.0001) >  stat_fName(1) = 'dynStDiag',
(PID.TID 0000.0001) >   stat_freq(1) = 864000.,
(PID.TID 0000.0001) >#  stat_freq(1) = 43200.,
(PID.TID 0000.0001) >  stat_phase(1) = 0.,
(PID.TID 0000.0001) > stat_fields(1:7,2)  = 'AtPhDifT','AtPhDifM','AtPhDisH',
(PID.TID 0000.0001) >                       'AtPhdtTg','AtPhdtQg','SHAP_dKE','MoistCor',
(PID.TID 0000.0001) >  stat_fName(2) = 'diffStDiag',
(PID.TID 0000.0001) >   stat_freq(2) = 864000.,
(PID.TID 0000.0001) >#  stat_freq(2) = 43200.,
(PID.TID 0000.0001) ># stat_phase(2) = 0.,
(PID.TID 0000.0001) > stat_fields(1:13,3) = 'AtPhSens','AtPhEvap','AtPhTauX','AtPhTauY',
(PID.TID 0000.0001) >                       'AtPhCAPE','AtPhCnvP','AtPhLscP',
(PID.TID 0000.0001) >                       'AtPh_SST','AtPhInSR','AtPhOLR ',
(PID.TID 0000.0001) >                       'AtPhNSSR','AtPhDSLR','AtPhUSLR',
(PID.TID 0000.0001) >  stat_fName(3) = 'flxStDiag',
(PID.TID 0000.0001) >   stat_freq(3) = 864000.,
(PID.TID 0000.0001) >#  stat_freq(3) = 43200.,
(PID.TID 0000.0001) >  stat_phase(3) = 0.,
(PID.TID 0000.0001) > /
(PID.TID 0000.0001) >
(PID.TID 0000.0001) 
(PID.TID 0000.0001) S/R DIAGNOSTICS_READPARMS, read namelist "diagnostics_list": start
(PID.TID 0000.0001) S/R DIAGNOSTICS_READPARMS, read namelist "diagnostics_list": OK
(PID.TID 0000.0001) S/R DIAGNOSTICS_READPARMS, read namelist "DIAG_STATIS_PARMS": start
(PID.TID 0000.0001) S/R DIAGNOSTICS_READPARMS, read namelist "DIAG_STATIS_PARMS": OK
(PID.TID 0000.0001)  DIAGNOSTICS_READPARMS: global parameter summary:
(PID.TID 0000.0001)  dumpAtLast = /* always write time-ave diags at the end */
(PID.TID 0000.0001)                   F
(PID.TID 0000.0001)     ;
(PID.TID 0000.0001)  diag_mnc =   /* write NetCDF output files */
(PID.TID 0000.0001)                   F
(PID.TID 0000.0001)     ;
(PID.TID 0000.0001)  useMissingValue = /* put MissingValue where mask = 0 */
(PID.TID 0000.0001)                   F
(PID.TID 0000.0001)     ;
(PID.TID 0000.0001)  diagCG_maxIters = /* max number of iters in diag_cg2d */
(PID.TID 0000.0001)                     200
(PID.TID 0000.0001)     ;
(PID.TID 0000.0001)  diagCG_resTarget = /* residual target for diag_cg2d */
(PID.TID 0000.0001)                 1.000000000000000E-07
(PID.TID 0000.0001)     ;
(PID.TID 0000.0001)  diagCG_pcOffDFac = /* preconditioner off-diagonal factor */
(PID.TID 0000.0001)                 9.611687812379854E-01
(PID.TID 0000.0001)     ;
(PID.TID 0000.0001) -----------------------------------------------------
(PID.TID 0000.0001)  DIAGNOSTICS_READPARMS: active diagnostics summary:
(PID.TID 0000.0001) -----------------------------------------------------
(PID.TID 0000.0001) Creating Output Stream: surfDiag
(PID.TID 0000.0001) Output Frequency: 6220800000.000000 ; Phase:           0.000000
(PID.TID 0000.0001)  Averaging Freq.:    2592000.000000 , Phase:           0.000000 , Cycle:  12
(PID.TID 0000.0001)  missing value: -9.990000000000E+02
(PID.TID 0000.0001)  Levels:    will be set later
(PID.TID 0000.0001)  Fields:    ETAN     ETANSQ   DETADT2  AtPhCAPE AtPhCnvP AtPhLscP AtPhSens AtPhEvap AtPhTauX AtPhTauY
(PID.TID 0000.0001)  Fields:    AtPh_SST AtPhInSR AtPhOLR  AtPhNSSR AtPhDSLR AtPhUSLR
(PID.TID 0000.0001) Creating Output Stream: dynDiag
(PID.TID 0000.0001) Output Frequency: 6220800000.000000 ; Phase:           0.000000
(PID.TID 0000.0001)  Averaging Freq.:    7776000.000000 , Phase:    -2592000.000000 , Cycle:   4
(PID.TID 0000.0001)  missing value: -9.990000000000E+02
(PID.TID 0000.0001)  Levels:    will be set later
(PID.TID 0000.0001)  Fields:    UVEL     VVEL     WVEL     THETA    SALT     UVELSQ   VVELSQ   WVELSQ   THETASQ  SALTSQ
(PID.TID 0000.0001)  Fields:    UVELMASS VVELMASS UV_VEL_C RELHUM   ADVx_TH  ADVy_TH  ADVr_TH  ADVx_SLT ADVy_SLT ADVr_SLT
(PID.TID 0000.0001) -----------------------------------------------------
(PID.TID 0000.0001)  DIAGNOSTICS_READPARMS: statistics diags. summary:
(PID.TID 0000.0001) Creating Stats. Output Stream: dynStDiag
(PID.TID 0000.0001) Output Frequency:     864000.000000 ; Phase:           0.000000
(PID.TID 0000.0001)  Regions:   0
(PID.TID 0000.0001)  Fields:    ETAN     THETA    SALT     RELHUM   UE_VEL_C VN_VEL_C WVEL     AtPhdTdt AtPhdQdt AtPhdUdt
(PID.TID 0000.0001)  Fields:    AtPhdVdt
(PID.TID 0000.0001) Creating Stats. Output Stream: diffStDiag
(PID.TID 0000.0001) Output Frequency:     864000.000000 ; Phase:           0.000000
(PID.TID 0000.0001)  Regions:   0
(PID.TID 0000.0001)  Fields:    AtPhDifT AtPhDifM AtPhDisH AtPhdtTg AtPhdtQg SHAP_dKE MoistCor
(PID.TID 0000.0001) Creating Stats. Output Stream: flxStDiag
(PID.TID 0000.0001) Output Frequency:     864000.000000 ; Phase:           0.000000
(PID.TID 0000.0001)  Regions:   0
(PID.TID 0000.0001)  Fields:    AtPhSens AtPhEvap AtPhTauX AtPhTauY AtPhCAPE AtPhCnvP AtPhLscP AtPh_SST AtPhInSR AtPhOLR
(PID.TID 0000.0001)  Fields:    AtPhNSSR AtPhDSLR AtPhUSLR
(PID.TID 0000.0001) -----------------------------------------------------
(PID.TID 0000.0001) 
(PID.TID 0000.0001)  CPL_READPARMS: opening data.cpl
(PID.TID 0000.0001)  OPEN_COPY_DATA_FILE: opening file data.cpl
(PID.TID 0000.0001) // =======================================================
(PID.TID 0000.0001) // Parameter file "data.cpl"
(PID.TID 0000.0001) // =======================================================
(PID.TID 0000.0001) ># Coupling package parameters, ATM component:
(PID.TID 0000.0001) >#     cpl_oldPickup  :: restart from an old pickup (= until ckpt 59h)
(PID.TID 0000.0001) >#     useImportMxlD  :: True => use Imported Mix.Layer Detph from coupler
(PID.TID 0000.0001) >#     useImportSST   :: True => use the Imported SST from coupler
(PID.TID 0000.0001) >#     useImportSSS   :: True => use the Imported SSS from coupler
(PID.TID 0000.0001) >#     useImportVsq   :: True => use the Imported Surf. velocity^2
(PID.TID 0000.0001) >#     cpl_atmSendFrq :: Frequency^-1 for sending data to coupler (s)
(PID.TID 0000.0001) >#     maxNumberPrint :: max number of printed Exp/Imp messages
(PID.TID 0000.0001) > &CPL_ATM_PARAM
(PID.TID 0000.0001) ># cpl_oldPickup=.TRUE.,
(PID.TID 0000.0001) >  useImportMxlD=.FALSE.,
(PID.TID 0000.0001) ># useImportSST =.FALSE.,
(PID.TID 0000.0001) >  useImportSSS =.FALSE.,
(PID.TID 0000.0001) >  useImportVsq =.FALSE.,
(PID.TID 0000.0001) ># useImportFlxCO2=.FALSE.,
(PID.TID 0000.0001) >  cpl_atmSendFrq=2880.,
(PID.TID 0000.0001) > /
(PID.TID 0000.0001) 
(PID.TID 0000.0001)  CPL_READPARMS: finished reading data.cpl
(PID.TID 0000.0001) 
(PID.TID 0000.0001) // ===================================
(PID.TID 0000.0001) // Coupling package parameters :
(PID.TID 0000.0001) // ===================================
(PID.TID 0000.0001) cpl_oldPickup = /* restart from old pickup on/off flag */
(PID.TID 0000.0001)                   F
(PID.TID 0000.0001)     ;
(PID.TID 0000.0001) useImportMxlD = /* use Imported MxL. Depth from Coupler flag */
(PID.TID 0000.0001)                   F
(PID.TID 0000.0001)     ;
(PID.TID 0000.0001) useImportSST = /* use Imported SST from Coupler on/off flag */
(PID.TID 0000.0001)                   T
(PID.TID 0000.0001)     ;
(PID.TID 0000.0001) useImportSSS = /* use Imported SSS from Coupler on/off flag */
(PID.TID 0000.0001)                   F
(PID.TID 0000.0001)     ;
(PID.TID 0000.0001) useImportVsq = /* use Imported surf.Vel^2 from Coupler flag */
(PID.TID 0000.0001)                   F
(PID.TID 0000.0001)     ;
(PID.TID 0000.0001) useImportFlxCO2 = /* use Imported air-sea CO2 flux from Coupler flag */
(PID.TID 0000.0001)                   F
(PID.TID 0000.0001)     ;
(PID.TID 0000.0001) cpl_atmSendFrq = /* Frequency^o-1 for sending data to Coupler (s) */
(PID.TID 0000.0001)                 2.880000000000000E+03
(PID.TID 0000.0001)     ;
(PID.TID 0000.0001) cplSendFrq_iter = /* send data to coupler every "cplSendFrq" iter */
(PID.TID 0000.0001)                       8
(PID.TID 0000.0001)     ;
(PID.TID 0000.0001) maxNumberPrint = /* max number of printed Exp/Imp messages */
(PID.TID 0000.0001)                     100
(PID.TID 0000.0001)     ;
(PID.TID 0000.0001) SET_PARMS: done
(PID.TID 0000.0001) Enter INI_VERTICAL_GRID: setInterFDr=    T ; setCenterDr=    F
(PID.TID 0000.0001) tile:   1 ; Read from file dxC1_dXYa.face001.bin
(PID.TID 0000.0001)   => xC yC dxF dyF rA xG yG dxV dyU rAz dxC dyC rAw rAs dxG dyG AngleCS AngleSN
(PID.TID 0000.0001) tile:   2 ; Read from file dxC1_dXYa.face002.bin
(PID.TID 0000.0001)   => xC yC dxF dyF rA xG yG dxV dyU rAz dxC dyC rAw rAs dxG dyG AngleCS AngleSN
(PID.TID 0000.0001) tile:   3 ; Read from file dxC1_dXYa.face003.bin
(PID.TID 0000.0001)   => xC yC dxF dyF rA xG yG dxV dyU rAz dxC dyC rAw rAs dxG dyG AngleCS AngleSN
(PID.TID 0000.0001) tile:   4 ; Read from file dxC1_dXYa.face004.bin
(PID.TID 0000.0001)   => xC yC dxF dyF rA xG yG dxV dyU rAz dxC dyC rAw rAs dxG dyG AngleCS AngleSN
(PID.TID 0000.0001) tile:   5 ; Read from file dxC1_dXYa.face005.bin
(PID.TID 0000.0001)   => xC yC dxF dyF rA xG yG dxV dyU rAz dxC dyC rAw rAs dxG dyG AngleCS AngleSN
(PID.TID 0000.0001) tile:   6 ; Read from file dxC1_dXYa.face006.bin
(PID.TID 0000.0001)   => xC yC dxF dyF rA xG yG dxV dyU rAz dxC dyC rAw rAs dxG dyG AngleCS AngleSN
(PID.TID 0000.0001) %MON XC_max                       =   1.7854351589505E+02
(PID.TID 0000.0001) %MON XC_min                       =  -1.7854351589505E+02
(PID.TID 0000.0001) %MON XC_mean                      =  -4.6999441375798E-15
(PID.TID 0000.0001) %MON XC_sd                        =   1.0355545336287E+02
(PID.TID 0000.0001) %MON XG_max                       =   1.8000000000000E+02
(PID.TID 0000.0001) %MON XG_min                       =  -1.7708797161002E+02
(PID.TID 0000.0001) %MON XG_mean                      =   1.8603515625000E+00
(PID.TID 0000.0001) %MON XG_sd                        =   1.0357130300504E+02
(PID.TID 0000.0001) %MON DXC_max                      =   3.2375185836900E+05
(PID.TID 0000.0001) %MON DXC_min                      =   1.1353730006923E+05
(PID.TID 0000.0001) %MON DXC_mean                     =   2.8606102525036E+05
(PID.TID 0000.0001) %MON DXC_sd                       =   3.4020997630307E+04
(PID.TID 0000.0001) %MON DXF_max                      =   3.2369947500827E+05
(PID.TID 0000.0001) %MON DXF_min                      =   1.2020820513318E+05
(PID.TID 0000.0001) %MON DXF_mean                     =   2.8605437324820E+05
(PID.TID 0000.0001) %MON DXF_sd                       =   3.4050524252539E+04
(PID.TID 0000.0001) %MON DXG_max                      =   3.2375195872773E+05
(PID.TID 0000.0001) %MON DXG_min                      =   1.0098378008791E+05
(PID.TID 0000.0001) %MON DXG_mean                     =   2.8603818508931E+05
(PID.TID 0000.0001) %MON DXG_sd                       =   3.4140406908005E+04
(PID.TID 0000.0001) %MON DXV_max                      =   3.2380418162750E+05
(PID.TID 0000.0001) %MON DXV_min                      =   8.0152299824136E+04
(PID.TID 0000.0001) %MON DXV_mean                     =   2.8603970633619E+05
(PID.TID 0000.0001) %MON DXV_sd                       =   3.4145142117723E+04
(PID.TID 0000.0001) %MON YC_max                       =   8.7940663871962E+01
(PID.TID 0000.0001) %MON YC_min                       =  -8.7940663871962E+01
(PID.TID 0000.0001) %MON YC_mean                      =   0.0000000000000E+00
(PID.TID 0000.0001) %MON YC_sd                        =   3.8676242969072E+01
(PID.TID 0000.0001) %MON YG_max                       =   9.0000000000000E+01
(PID.TID 0000.0001) %MON YG_min                       =  -9.0000000000000E+01
(PID.TID 0000.0001) %MON YG_mean                      =  -1.1842378929335E-15
(PID.TID 0000.0001) %MON YG_sd                        =   3.8676895860710E+01
(PID.TID 0000.0001) %MON DYC_max                      =   3.2375185836900E+05
(PID.TID 0000.0001) %MON DYC_min                      =   1.1353730006923E+05
(PID.TID 0000.0001) %MON DYC_mean                     =   2.8606102525036E+05
(PID.TID 0000.0001) %MON DYC_sd                       =   3.4020997630307E+04
(PID.TID 0000.0001) %MON DYF_max                      =   3.2369947500827E+05
(PID.TID 0000.0001) %MON DYF_min                      =   1.2020820513318E+05
(PID.TID 0000.0001) %MON DYF_mean                     =   2.8605437324820E+05
(PID.TID 0000.0001) %MON DYF_sd                       =   3.4050524252539E+04
(PID.TID 0000.0001) %MON DYG_max                      =   3.2375195872773E+05
(PID.TID 0000.0001) %MON DYG_min                      =   1.0098378008791E+05
(PID.TID 0000.0001) %MON DYG_mean                     =   2.8603818508931E+05
(PID.TID 0000.0001) %MON DYG_sd                       =   3.4140406908005E+04
(PID.TID 0000.0001) %MON DYU_max                      =   3.2380418162750E+05
(PID.TID 0000.0001) %MON DYU_min                      =   8.0152299824136E+04
(PID.TID 0000.0001) %MON DYU_mean                     =   2.8603970633619E+05
(PID.TID 0000.0001) %MON DYU_sd                       =   3.4145142117723E+04
(PID.TID 0000.0001) %MON RA_max                       =   1.0474757731659E+11
(PID.TID 0000.0001) %MON RA_min                       =   1.5497867056722E+10
(PID.TID 0000.0001) %MON RA_mean                      =   8.2985711332657E+10
(PID.TID 0000.0001) %MON RA_sd                        =   1.7448591913787E+10
(PID.TID 0000.0001) %MON RAW_max                      =   1.0481529828871E+11
(PID.TID 0000.0001) %MON RAW_min                      =   1.1465425741966E+10
(PID.TID 0000.0001) %MON RAW_mean                     =   8.2985711332657E+10
(PID.TID 0000.0001) %MON RAW_sd                       =   1.7503889570793E+10
(PID.TID 0000.0001) %MON RAS_max                      =   1.0481529828871E+11
(PID.TID 0000.0001) %MON RAS_min                      =   1.1465425741966E+10
(PID.TID 0000.0001) %MON RAS_mean                     =   8.2985711332657E+10
(PID.TID 0000.0001) %MON RAS_sd                       =   1.7503889570793E+10
(PID.TID 0000.0001) %MON RAZ_max                      =   1.0484349334619E+11
(PID.TID 0000.0001) %MON RAZ_min                      =   8.8317900612505E+09
(PID.TID 0000.0001) %MON RAZ_mean                     =   8.2992246709235E+10
(PID.TID 0000.0001) %MON RAZ_sd                       =   1.7482297311044E+10
(PID.TID 0000.0001) %MON AngleCS_max                  =   9.9999994756719E-01
(PID.TID 0000.0001) %MON AngleCS_min                  =  -9.9968286884824E-01
(PID.TID 0000.0001) %MON AngleCS_mean                 =   3.3078922539000E-01
(PID.TID 0000.0001) %MON AngleCS_sd                   =   6.2496278958502E-01
(PID.TID 0000.0001) %MON AngleSN_max                  =   9.9968286884824E-01
(PID.TID 0000.0001) %MON AngleSN_min                  =  -9.9999994756719E-01
(PID.TID 0000.0001) %MON AngleSN_mean                 =  -3.3078922539000E-01
(PID.TID 0000.0001) %MON AngleSN_sd                   =   6.2496278958502E-01
(PID.TID 0000.0001) 
(PID.TID 0000.0001) SET_REF_STATE: PhiRef/g [m] at level Center (integer)
(PID.TID 0000.0001)                      and at level Interface (half-int.) :
(PID.TID 0000.0001)  K=  0.5  ;  r=       100000.0  ;  phiRef/g=        0.000
(PID.TID 0000.0001)  K=  1.0  ;  r=        99250.0  ;  phiRef/g=       65.000
(PID.TID 0000.0001)  K=  1.5  ;  r=        98500.0  ;  phiRef/g=      144.206
(PID.TID 0000.0001)  K=  2.0  ;  r=        97439.0  ;  phiRef/g=      223.413
(PID.TID 0000.0001)  K=  2.5  ;  r=        96378.0  ;  phiRef/g=      337.236
(PID.TID 0000.0001)  K=  3.0  ;  r=        94878.0  ;  phiRef/g=      451.060
(PID.TID 0000.0001)  K=  3.5  ;  r=        93378.0  ;  phiRef/g=      615.802
(PID.TID 0000.0001)  K=  4.0  ;  r=        91257.0  ;  phiRef/g=      780.544
(PID.TID 0000.0001)  K=  4.5  ;  r=        89136.0  ;  phiRef/g=     1021.698
(PID.TID 0000.0001)  K=  5.0  ;  r=        86136.0  ;  phiRef/g=     1262.852
(PID.TID 0000.0001)  K=  5.5  ;  r=        83136.0  ;  phiRef/g=     1604.545
(PID.TID 0000.0001)  K=  6.0  ;  r=        79236.0  ;  phiRef/g=     1946.238
(PID.TID 0000.0001)  K=  6.5  ;  r=        75336.0  ;  phiRef/g=     2394.973
(PID.TID 0000.0001)  K=  7.0  ;  r=        70786.0  ;  phiRef/g=     2843.709
(PID.TID 0000.0001)  K=  7.5  ;  r=        66236.0  ;  phiRef/g=     3381.201
(PID.TID 0000.0001)  K=  8.0  ;  r=        61536.0  ;  phiRef/g=     3918.694
(PID.TID 0000.0001)  K=  8.5  ;  r=        56836.0  ;  phiRef/g=     4523.627
(PID.TID 0000.0001)  K=  9.0  ;  r=        52196.0  ;  phiRef/g=     5128.560
(PID.TID 0000.0001)  K=  9.5  ;  r=        47556.0  ;  phiRef/g=     5777.201
(PID.TID 0000.0001)  K= 10.0  ;  r=        43356.0  ;  phiRef/g=     6425.843
(PID.TID 0000.0001)  K= 10.5  ;  r=        39156.0  ;  phiRef/g=     7072.216
(PID.TID 0000.0001)  K= 11.0  ;  r=        35666.0  ;  phiRef/g=     7718.589
(PID.TID 0000.0001)  K= 11.5  ;  r=        32176.0  ;  phiRef/g=     8336.533
(PID.TID 0000.0001)  K= 12.0  ;  r=        29276.0  ;  phiRef/g=     8954.478
(PID.TID 0000.0001)  K= 12.5  ;  r=        26376.0  ;  phiRef/g=     9546.297
(PID.TID 0000.0001)  K= 13.0  ;  r=        23966.0  ;  phiRef/g=    10138.117
(PID.TID 0000.0001)  K= 13.5  ;  r=        21556.0  ;  phiRef/g=    10706.062
(PID.TID 0000.0001)  K= 14.0  ;  r=        19554.0  ;  phiRef/g=    11274.007
(PID.TID 0000.0001)  K= 14.5  ;  r=        17552.0  ;  phiRef/g=    11820.513
(PID.TID 0000.0001)  K= 15.0  ;  r=        15888.0  ;  phiRef/g=    12367.018
(PID.TID 0000.0001)  K= 15.5  ;  r=        14224.0  ;  phiRef/g=    12894.813
(PID.TID 0000.0001)  K= 16.0  ;  r=        12841.0  ;  phiRef/g=    13422.607
(PID.TID 0000.0001)  K= 16.5  ;  r=        11458.0  ;  phiRef/g=    13934.405
(PID.TID 0000.0001)  K= 17.0  ;  r=        10309.0  ;  phiRef/g=    14446.203
(PID.TID 0000.0001)  K= 17.5  ;  r=         9160.0  ;  phiRef/g=    14945.188
(PID.TID 0000.0001)  K= 18.0  ;  r=         8205.0  ;  phiRef/g=    15444.173
(PID.TID 0000.0001)  K= 18.5  ;  r=         7250.0  ;  phiRef/g=    15934.021
(PID.TID 0000.0001)  K= 19.0  ;  r=         6457.0  ;  phiRef/g=    16423.869
(PID.TID 0000.0001)  K= 19.5  ;  r=         5664.0  ;  phiRef/g=    16909.194
(PID.TID 0000.0001)  K= 20.0  ;  r=         5005.0  ;  phiRef/g=    17394.518
(PID.TID 0000.0001)  K= 20.5  ;  r=         4346.0  ;  phiRef/g=    17881.933
(PID.TID 0000.0001)  K= 21.0  ;  r=         3798.0  ;  phiRef/g=    18369.347
(PID.TID 0000.0001)  K= 21.5  ;  r=         3250.0  ;  phiRef/g=    18867.727
(PID.TID 0000.0001)  K= 22.0  ;  r=         2795.0  ;  phiRef/g=    19366.107
(PID.TID 0000.0001)  K= 22.5  ;  r=         2340.0  ;  phiRef/g=    19889.510
(PID.TID 0000.0001)  K= 23.0  ;  r=         1962.0  ;  phiRef/g=    20412.912
(PID.TID 0000.0001)  K= 23.5  ;  r=         1584.0  ;  phiRef/g=    20987.805
(PID.TID 0000.0001)  K= 24.0  ;  r=         1270.0  ;  phiRef/g=    21562.697
(PID.TID 0000.0001)  K= 24.5  ;  r=          956.0  ;  phiRef/g=    22250.139
(PID.TID 0000.0001)  K= 25.0  ;  r=          695.0  ;  phiRef/g=    22937.580
(PID.TID 0000.0001)  K= 25.5  ;  r=          434.0  ;  phiRef/g=    23972.294
(PID.TID 0000.0001)  K= 26.0  ;  r=          217.0  ;  phiRef/g=    25007.007
(PID.TID 0000.0001)  K= 26.5  ;  r=            0.0  ;  phiRef/g=    30251.966
(PID.TID 0000.0001) // =======================================================
(PID.TID 0000.0001) // Field Model R_low (ini_masks_etc)
(PID.TID 0000.0001) // CMIN =          1.000000000000000E+32
(PID.TID 0000.0001) // CMAX =         -1.000000000000000E+32
(PID.TID 0000.0001) // CINT =          0.000000000000000E+00
(PID.TID 0000.0001) // SYMBOLS (CMIN->CMAX): -abcdefghijklmnopqrstuvwxyz+
(PID.TID 0000.0001) //                  0.0: .
(PID.TID 0000.0001) // RANGE I (Lo:Hi:Step):(    -3:   196:     1)
(PID.TID 0000.0001) // RANGE J (Lo:Hi:Step):(    36:    -3:    -1)
(PID.TID 0000.0001) // RANGE K (Lo:Hi:Step):(   1:   1:   1)
(PID.TID 0000.0001) // =======================================================
(PID.TID 0000.0001) // =======================================================
(PID.TID 0000.0001) // END OF FIELD                                          =
(PID.TID 0000.0001) // =======================================================
(PID.TID 0000.0001) 
(PID.TID 0000.0001) // =======================================================
(PID.TID 0000.0001) // Field Model Ro_surf (ini_masks_etc)
(PID.TID 0000.0001) // CMIN =          1.000000000000000E+05
(PID.TID 0000.0001) // CMAX =          1.000000000000000E+05
(PID.TID 0000.0001) // CINT =          0.000000000000000E+00
(PID.TID 0000.0001) // SYMBOLS (CMIN->CMAX): -abcdefghijklmnopqrstuvwxyz+
(PID.TID 0000.0001) //                  0.0: .
(PID.TID 0000.0001) // RANGE I (Lo:Hi:Step):(    -3:   196:     1)
(PID.TID 0000.0001) // RANGE J (Lo:Hi:Step):(    36:    -3:    -1)
(PID.TID 0000.0001) // RANGE K (Lo:Hi:Step):(   1:   1:   1)
(PID.TID 0000.0001) // =======================================================
(PID.TID 0000.0001) // =======================================================
(PID.TID 0000.0001) // END OF FIELD                                          =
(PID.TID 0000.0001) // =======================================================
(PID.TID 0000.0001) 
(PID.TID 0000.0001) // =======================================================
(PID.TID 0000.0001) // Field hFacC at iteration          0
(PID.TID 0000.0001) // CMIN =          1.000000000000000E+00
(PID.TID 0000.0001) // CMAX =          1.000000000000000E+00
(PID.TID 0000.0001) // CINT =          0.000000000000000E+00
(PID.TID 0000.0001) // SYMBOLS (CMIN->CMAX): -abcdefghijklmnopqrstuvwxyz+
(PID.TID 0000.0001) //                  0.0: .
(PID.TID 0000.0001) // RANGE I (Lo:Hi:Step):(    -3:   196:     1)
(PID.TID 0000.0001) // RANGE J (Lo:Hi:Step):(    36:    -3:    -1)
(PID.TID 0000.0001) // RANGE K (Lo:Hi:Step):(   1:   1:   1)
(PID.TID 0000.0001) // =======================================================
(PID.TID 0000.0001) // =======================================================
(PID.TID 0000.0001) // END OF FIELD                                          =
(PID.TID 0000.0001) // =======================================================
(PID.TID 0000.0001) 
(PID.TID 0000.0001) // =======================================================
(PID.TID 0000.0001) // Field hFacW at iteration          0
(PID.TID 0000.0001) // CMIN =          1.000000000000000E+00
(PID.TID 0000.0001) // CMAX =          1.000000000000000E+00
(PID.TID 0000.0001) // CINT =          0.000000000000000E+00
(PID.TID 0000.0001) // SYMBOLS (CMIN->CMAX): -abcdefghijklmnopqrstuvwxyz+
(PID.TID 0000.0001) //                  0.0: .
(PID.TID 0000.0001) // RANGE I (Lo:Hi:Step):(    -3:   196:     1)
(PID.TID 0000.0001) // RANGE J (Lo:Hi:Step):(    36:    -3:    -1)
(PID.TID 0000.0001) // RANGE K (Lo:Hi:Step):(   1:   1:   1)
(PID.TID 0000.0001) // =======================================================
(PID.TID 0000.0001) // =======================================================
(PID.TID 0000.0001) // END OF FIELD                                          =
(PID.TID 0000.0001) // =======================================================
(PID.TID 0000.0001) 
(PID.TID 0000.0001) // =======================================================
(PID.TID 0000.0001) // Field hFacS at iteration          0
(PID.TID 0000.0001) // CMIN =          1.000000000000000E+00
(PID.TID 0000.0001) // CMAX =          1.000000000000000E+00
(PID.TID 0000.0001) // CINT =          0.000000000000000E+00
(PID.TID 0000.0001) // SYMBOLS (CMIN->CMAX): -abcdefghijklmnopqrstuvwxyz+
(PID.TID 0000.0001) //                  0.0: .
(PID.TID 0000.0001) // RANGE I (Lo:Hi:Step):(    -3:   196:     1)
(PID.TID 0000.0001) // RANGE J (Lo:Hi:Step):(    36:    -3:    -1)
(PID.TID 0000.0001) // RANGE K (Lo:Hi:Step):(   1:   1:   1)
(PID.TID 0000.0001) // =======================================================
(PID.TID 0000.0001) // =======================================================
(PID.TID 0000.0001) // END OF FIELD                                          =
(PID.TID 0000.0001) // =======================================================
(PID.TID 0000.0001) 
(PID.TID 0000.0001) GAD_INIT_FIXED: GAD_OlMinSize=  2  0  2
(PID.TID 0000.0001) 
(PID.TID 0000.0001) // ===================================
(PID.TID 0000.0001) // GAD parameters :
(PID.TID 0000.0001) // ===================================
(PID.TID 0000.0001) tempAdvScheme =   /* Temp. Horiz.Advection scheme selector */
(PID.TID 0000.0001)                       2
(PID.TID 0000.0001)     ;
(PID.TID 0000.0001) tempVertAdvScheme =   /* Temp. Vert. Advection scheme selector */
(PID.TID 0000.0001)                       2
(PID.TID 0000.0001)     ;
(PID.TID 0000.0001) tempMultiDimAdvec =   /* use Muti-Dim Advec method for Temp */
(PID.TID 0000.0001)                   F
(PID.TID 0000.0001)     ;
(PID.TID 0000.0001) tempSOM_Advection = /* use 2nd Order Moment Advection for Temp */
(PID.TID 0000.0001)                   F
(PID.TID 0000.0001)     ;
(PID.TID 0000.0001) AdamsBashforthGt = /* apply Adams-Bashforth extrapolation on Gt */
(PID.TID 0000.0001)                   T
(PID.TID 0000.0001)     ;
(PID.TID 0000.0001) AdamsBashforth_T = /* apply Adams-Bashforth extrapolation on Temp */
(PID.TID 0000.0001)                   F
(PID.TID 0000.0001)     ;
(PID.TID 0000.0001) saltAdvScheme =   /* Salt. Horiz.advection scheme selector */
(PID.TID 0000.0001)                      77
(PID.TID 0000.0001)     ;
(PID.TID 0000.0001) saltVertAdvScheme =   /* Salt. Vert. Advection scheme selector */
(PID.TID 0000.0001)                      77
(PID.TID 0000.0001)     ;
(PID.TID 0000.0001) saltMultiDimAdvec =   /* use Muti-Dim Advec method for Salt */
(PID.TID 0000.0001)                   T
(PID.TID 0000.0001)     ;
(PID.TID 0000.0001) saltSOM_Advection = /* use 2nd Order Moment Advection for Salt */
(PID.TID 0000.0001)                   F
(PID.TID 0000.0001)     ;
(PID.TID 0000.0001) AdamsBashforthGs = /* apply Adams-Bashforth extrapolation on Gs */
(PID.TID 0000.0001)                   F
(PID.TID 0000.0001)     ;
(PID.TID 0000.0001) AdamsBashforth_S = /* apply Adams-Bashforth extrapolation on Salt */
(PID.TID 0000.0001)                   F
(PID.TID 0000.0001)     ;
(PID.TID 0000.0001) // ===================================
(PID.TID 0000.0001) ATM_PHYS_INIT_FIXED: opening data.atm_gray
(PID.TID 0000.0001)  OPEN_COPY_DATA_FILE: opening file data.atm_gray
(PID.TID 0000.0001) // =======================================================
(PID.TID 0000.0001) // Parameter file "data.atm_gray"
(PID.TID 0000.0001) // =======================================================
(PID.TID 0000.0001) >
(PID.TID 0000.0001) > &atmosphere_nml
(PID.TID 0000.0001) >    turb = .TRUE.,
(PID.TID 0000.0001) >    ldry_convection = .false.,
(PID.TID 0000.0001) >    lwet_convection = .TRUE.,
(PID.TID 0000.0001) >    do_virtual = .false.,
(PID.TID 0000.0001) >    two_stream = .true.,
(PID.TID 0000.0001) >    mixed_layer_bc = .false.,
(PID.TID 0000.0001) >    roughness_heat = 0.05,
(PID.TID 0000.0001) >    roughness_moist = 0.05,
(PID.TID 0000.0001) >    roughness_mom = 0.05,
(PID.TID 0000.0001) > /
(PID.TID 0000.0001) >
(PID.TID 0000.0001) > &radiation_nml
(PID.TID 0000.0001) >  select_incSW  = 1,
(PID.TID 0000.0001) >  solar_constant= 1365.,
(PID.TID 0000.0001) ># yearLength=
(PID.TID 0000.0001) ># yearPhase =
(PID.TID 0000.0001) ># obliquity =
(PID.TID 0000.0001) >  del_sol=1.,
(PID.TID 0000.0001) ># ir_tau_eq=
(PID.TID 0000.0001) ># ir_tau_pole=
(PID.TID 0000.0001) >  atm_abs= 0.22,
(PID.TID 0000.0001) ># value that Ruth is using as default:
(PID.TID 0000.0001) ># atm_abs= 0.2486,
(PID.TID 0000.0001) ># sw_diff=
(PID.TID 0000.0001) ># linear_tau=
(PID.TID 0000.0001) ># del_sw=
(PID.TID 0000.0001) >  albedo_value=0.38,
(PID.TID 0000.0001) ># window=
(PID.TID 0000.0001) ># wv_exponent=
(PID.TID 0000.0001) ># solar_exponent=
(PID.TID 0000.0001) >  wv_exponent=0.,
(PID.TID 0000.0001) > /
(PID.TID 0000.0001) >
(PID.TID 0000.0001) > &lscale_cond_nml
(PID.TID 0000.0001) ># hc =
(PID.TID 0000.0001) ># do_evap=
(PID.TID 0000.0001) > /
(PID.TID 0000.0001) >
(PID.TID 0000.0001) > &dargan_bettsmiller_nml
(PID.TID 0000.0001) >#-- default:
(PID.TID 0000.0001) >#   tau_bm = 7200.,
(PID.TID 0000.0001) >#   rhbm   = 0.8,
(PID.TID 0000.0001) >#   do_virtual   = .FALSE.,
(PID.TID 0000.0001) >#   do_shallower = .FALSE.,
(PID.TID 0000.0001) >#   do_changeqref= .FALSE.,
(PID.TID 0000.0001) >#   do_envsat    = .FALSE.,
(PID.TID 0000.0001) >#   do_taucape   = .FALSE.,
(PID.TID 0000.0001) >#     capetaubm  = 900.,
(PID.TID 0000.0001) >#     tau_min    = 2400.,
(PID.TID 0000.0001) >#   do_bm_shift  = .FALSE.,
(PID.TID 0000.0001) >#-- POG choice:
(PID.TID 0000.0001) >#  rhbm = 0.7,
(PID.TID 0000.0001) >   do_virtual= .TRUE.,
(PID.TID 0000.0001) >   do_shallower= .TRUE.,
(PID.TID 0000.0001) > /
(PID.TID 0000.0001) >
(PID.TID 0000.0001) > &surface_flux_nml
(PID.TID 0000.0001) > /
(PID.TID 0000.0001) >
(PID.TID 0000.0001) > &vert_turb_driver_nml
(PID.TID 0000.0001) >#  do_shallow_conv, do_mellor_yamada,
(PID.TID 0000.0001) >#  gust_scheme, constant_gust, use_tau,
(PID.TID 0000.0001) >#  do_molecular_diffusion
(PID.TID 0000.0001) >  do_mellor_yamada=.FALSE.,
(PID.TID 0000.0001) > /
(PID.TID 0000.0001) >
(PID.TID 0000.0001) > &diffusivity_nml
(PID.TID 0000.0001) >#  fixed_depth, depth_0, frac_inner,
(PID.TID 0000.0001) >#  rich_crit_pbl, entr_ratio, parcel_buoy,
(PID.TID 0000.0001) >#  znom, free_atm_diff, free_atm_skyhi_diff,
(PID.TID 0000.0001) >#  pbl_mcm, rich_crit_diff, mix_len, rich_prandtl,
(PID.TID 0000.0001) >#  background_m, background_t, ampns, ampns_max,
(PID.TID 0000.0001) >#  do_virtual_non_mcm
(PID.TID 0000.0001) > /
(PID.TID 0000.0001) >
(PID.TID 0000.0001) > &monin_obukhov_nml
(PID.TID 0000.0001) > /
(PID.TID 0000.0001) >
(PID.TID 0000.0001) > &my25_turb_nml
(PID.TID 0000.0001) > /
(PID.TID 0000.0001) >
(PID.TID 0000.0001) > &shallow_conv_nml
(PID.TID 0000.0001) > /
(PID.TID 0000.0001) >
(PID.TID 0000.0001) > &mixed_layer_nml
(PID.TID 0000.0001) ># evaporation, qflux_amp, depth, qflux_width
(PID.TID 0000.0001) >  depth=5000.,
(PID.TID 0000.0001) > /
(PID.TID 0000.0001) 
(PID.TID 0000.0001) ATM_PHYS_INIT_FIXED: finished reading data.atm_gray
(PID.TID 0000.0001) MIXED_LAYER_INIT: opening data.atm_gray
(PID.TID 0000.0001)  OPEN_COPY_DATA_FILE: opening file data.atm_gray
(PID.TID 0000.0001) // =======================================================
(PID.TID 0000.0001) // Parameter file "data.atm_gray"
(PID.TID 0000.0001) // =======================================================
(PID.TID 0000.0001) >
(PID.TID 0000.0001) > &atmosphere_nml
(PID.TID 0000.0001) >    turb = .TRUE.,
(PID.TID 0000.0001) >    ldry_convection = .false.,
(PID.TID 0000.0001) >    lwet_convection = .TRUE.,
(PID.TID 0000.0001) >    do_virtual = .false.,
(PID.TID 0000.0001) >    two_stream = .true.,
(PID.TID 0000.0001) >    mixed_layer_bc = .false.,
(PID.TID 0000.0001) >    roughness_heat = 0.05,
(PID.TID 0000.0001) >    roughness_moist = 0.05,
(PID.TID 0000.0001) >    roughness_mom = 0.05,
(PID.TID 0000.0001) > /
(PID.TID 0000.0001) >
(PID.TID 0000.0001) > &radiation_nml
(PID.TID 0000.0001) >  select_incSW  = 1,
(PID.TID 0000.0001) >  solar_constant= 1365.,
(PID.TID 0000.0001) ># yearLength=
(PID.TID 0000.0001) ># yearPhase =
(PID.TID 0000.0001) ># obliquity =
(PID.TID 0000.0001) >  del_sol=1.,
(PID.TID 0000.0001) ># ir_tau_eq=
(PID.TID 0000.0001) ># ir_tau_pole=
(PID.TID 0000.0001) >  atm_abs= 0.22,
(PID.TID 0000.0001) ># value that Ruth is using as default:
(PID.TID 0000.0001) ># atm_abs= 0.2486,
(PID.TID 0000.0001) ># sw_diff=
(PID.TID 0000.0001) ># linear_tau=
(PID.TID 0000.0001) ># del_sw=
(PID.TID 0000.0001) >  albedo_value=0.38,
(PID.TID 0000.0001) ># window=
(PID.TID 0000.0001) ># wv_exponent=
(PID.TID 0000.0001) ># solar_exponent=
(PID.TID 0000.0001) >  wv_exponent=0.,
(PID.TID 0000.0001) > /
(PID.TID 0000.0001) >
(PID.TID 0000.0001) > &lscale_cond_nml
(PID.TID 0000.0001) ># hc =
(PID.TID 0000.0001) ># do_evap=
(PID.TID 0000.0001) > /
(PID.TID 0000.0001) >
(PID.TID 0000.0001) > &dargan_bettsmiller_nml
(PID.TID 0000.0001) >#-- default:
(PID.TID 0000.0001) >#   tau_bm = 7200.,
(PID.TID 0000.0001) >#   rhbm   = 0.8,
(PID.TID 0000.0001) >#   do_virtual   = .FALSE.,
(PID.TID 0000.0001) >#   do_shallower = .FALSE.,
(PID.TID 0000.0001) >#   do_changeqref= .FALSE.,
(PID.TID 0000.0001) >#   do_envsat    = .FALSE.,
(PID.TID 0000.0001) >#   do_taucape   = .FALSE.,
(PID.TID 0000.0001) >#     capetaubm  = 900.,
(PID.TID 0000.0001) >#     tau_min    = 2400.,
(PID.TID 0000.0001) >#   do_bm_shift  = .FALSE.,
(PID.TID 0000.0001) >#-- POG choice:
(PID.TID 0000.0001) >#  rhbm = 0.7,
(PID.TID 0000.0001) >   do_virtual= .TRUE.,
(PID.TID 0000.0001) >   do_shallower= .TRUE.,
(PID.TID 0000.0001) > /
(PID.TID 0000.0001) >
(PID.TID 0000.0001) > &surface_flux_nml
(PID.TID 0000.0001) > /
(PID.TID 0000.0001) >
(PID.TID 0000.0001) > &vert_turb_driver_nml
(PID.TID 0000.0001) >#  do_shallow_conv, do_mellor_yamada,
(PID.TID 0000.0001) >#  gust_scheme, constant_gust, use_tau,
(PID.TID 0000.0001) >#  do_molecular_diffusion
(PID.TID 0000.0001) >  do_mellor_yamada=.FALSE.,
(PID.TID 0000.0001) > /
(PID.TID 0000.0001) >
(PID.TID 0000.0001) > &diffusivity_nml
(PID.TID 0000.0001) >#  fixed_depth, depth_0, frac_inner,
(PID.TID 0000.0001) >#  rich_crit_pbl, entr_ratio, parcel_buoy,
(PID.TID 0000.0001) >#  znom, free_atm_diff, free_atm_skyhi_diff,
(PID.TID 0000.0001) >#  pbl_mcm, rich_crit_diff, mix_len, rich_prandtl,
(PID.TID 0000.0001) >#  background_m, background_t, ampns, ampns_max,
(PID.TID 0000.0001) >#  do_virtual_non_mcm
(PID.TID 0000.0001) > /
(PID.TID 0000.0001) >
(PID.TID 0000.0001) > &monin_obukhov_nml
(PID.TID 0000.0001) > /
(PID.TID 0000.0001) >
(PID.TID 0000.0001) > &my25_turb_nml
(PID.TID 0000.0001) > /
(PID.TID 0000.0001) >
(PID.TID 0000.0001) > &shallow_conv_nml
(PID.TID 0000.0001) > /
(PID.TID 0000.0001) >
(PID.TID 0000.0001) > &mixed_layer_nml
(PID.TID 0000.0001) ># evaporation, qflux_amp, depth, qflux_width
(PID.TID 0000.0001) >  depth=5000.,
(PID.TID 0000.0001) > /
(PID.TID 0000.0001) 
(PID.TID 0000.0001) MIXED_LAYER_INIT: finished reading data.atm_gray
(PID.TID 0000.0001) LSCALE_COND_INIT: opening data.atm_gray
(PID.TID 0000.0001)  OPEN_COPY_DATA_FILE: opening file data.atm_gray
(PID.TID 0000.0001) // =======================================================
(PID.TID 0000.0001) // Parameter file "data.atm_gray"
(PID.TID 0000.0001) // =======================================================
(PID.TID 0000.0001) >
(PID.TID 0000.0001) > &atmosphere_nml
(PID.TID 0000.0001) >    turb = .TRUE.,
(PID.TID 0000.0001) >    ldry_convection = .false.,
(PID.TID 0000.0001) >    lwet_convection = .TRUE.,
(PID.TID 0000.0001) >    do_virtual = .false.,
(PID.TID 0000.0001) >    two_stream = .true.,
(PID.TID 0000.0001) >    mixed_layer_bc = .false.,
(PID.TID 0000.0001) >    roughness_heat = 0.05,
(PID.TID 0000.0001) >    roughness_moist = 0.05,
(PID.TID 0000.0001) >    roughness_mom = 0.05,
(PID.TID 0000.0001) > /
(PID.TID 0000.0001) >
(PID.TID 0000.0001) > &radiation_nml
(PID.TID 0000.0001) >  select_incSW  = 1,
(PID.TID 0000.0001) >  solar_constant= 1365.,
(PID.TID 0000.0001) ># yearLength=
(PID.TID 0000.0001) ># yearPhase =
(PID.TID 0000.0001) ># obliquity =
(PID.TID 0000.0001) >  del_sol=1.,
(PID.TID 0000.0001) ># ir_tau_eq=
(PID.TID 0000.0001) ># ir_tau_pole=
(PID.TID 0000.0001) >  atm_abs= 0.22,
(PID.TID 0000.0001) ># value that Ruth is using as default:
(PID.TID 0000.0001) ># atm_abs= 0.2486,
(PID.TID 0000.0001) ># sw_diff=
(PID.TID 0000.0001) ># linear_tau=
(PID.TID 0000.0001) ># del_sw=
(PID.TID 0000.0001) >  albedo_value=0.38,
(PID.TID 0000.0001) ># window=
(PID.TID 0000.0001) ># wv_exponent=
(PID.TID 0000.0001) ># solar_exponent=
(PID.TID 0000.0001) >  wv_exponent=0.,
(PID.TID 0000.0001) > /
(PID.TID 0000.0001) >
(PID.TID 0000.0001) > &lscale_cond_nml
(PID.TID 0000.0001) ># hc =
(PID.TID 0000.0001) ># do_evap=
(PID.TID 0000.0001) > /
(PID.TID 0000.0001) >
(PID.TID 0000.0001) > &dargan_bettsmiller_nml
(PID.TID 0000.0001) >#-- default:
(PID.TID 0000.0001) >#   tau_bm = 7200.,
(PID.TID 0000.0001) >#   rhbm   = 0.8,
(PID.TID 0000.0001) >#   do_virtual   = .FALSE.,
(PID.TID 0000.0001) >#   do_shallower = .FALSE.,
(PID.TID 0000.0001) >#   do_changeqref= .FALSE.,
(PID.TID 0000.0001) >#   do_envsat    = .FALSE.,
(PID.TID 0000.0001) >#   do_taucape   = .FALSE.,
(PID.TID 0000.0001) >#     capetaubm  = 900.,
(PID.TID 0000.0001) >#     tau_min    = 2400.,
(PID.TID 0000.0001) >#   do_bm_shift  = .FALSE.,
(PID.TID 0000.0001) >#-- POG choice:
(PID.TID 0000.0001) >#  rhbm = 0.7,
(PID.TID 0000.0001) >   do_virtual= .TRUE.,
(PID.TID 0000.0001) >   do_shallower= .TRUE.,
(PID.TID 0000.0001) > /
(PID.TID 0000.0001) >
(PID.TID 0000.0001) > &surface_flux_nml
(PID.TID 0000.0001) > /
(PID.TID 0000.0001) >
(PID.TID 0000.0001) > &vert_turb_driver_nml
(PID.TID 0000.0001) >#  do_shallow_conv, do_mellor_yamada,
(PID.TID 0000.0001) >#  gust_scheme, constant_gust, use_tau,
(PID.TID 0000.0001) >#  do_molecular_diffusion
(PID.TID 0000.0001) >  do_mellor_yamada=.FALSE.,
(PID.TID 0000.0001) > /
(PID.TID 0000.0001) >
(PID.TID 0000.0001) > &diffusivity_nml
(PID.TID 0000.0001) >#  fixed_depth, depth_0, frac_inner,
(PID.TID 0000.0001) >#  rich_crit_pbl, entr_ratio, parcel_buoy,
(PID.TID 0000.0001) >#  znom, free_atm_diff, free_atm_skyhi_diff,
(PID.TID 0000.0001) >#  pbl_mcm, rich_crit_diff, mix_len, rich_prandtl,
(PID.TID 0000.0001) >#  background_m, background_t, ampns, ampns_max,
(PID.TID 0000.0001) >#  do_virtual_non_mcm
(PID.TID 0000.0001) > /
(PID.TID 0000.0001) >
(PID.TID 0000.0001) > &monin_obukhov_nml
(PID.TID 0000.0001) > /
(PID.TID 0000.0001) >
(PID.TID 0000.0001) > &my25_turb_nml
(PID.TID 0000.0001) > /
(PID.TID 0000.0001) >
(PID.TID 0000.0001) > &shallow_conv_nml
(PID.TID 0000.0001) > /
(PID.TID 0000.0001) >
(PID.TID 0000.0001) > &mixed_layer_nml
(PID.TID 0000.0001) ># evaporation, qflux_amp, depth, qflux_width
(PID.TID 0000.0001) >  depth=5000.,
(PID.TID 0000.0001) > /
(PID.TID 0000.0001) 
(PID.TID 0000.0001) LSCALE_COND_INIT: finished reading data.atm_gray
(PID.TID 0000.0001) DARGAN_BETTSMILLER_init: opening data.atm_gray
(PID.TID 0000.0001)  OPEN_COPY_DATA_FILE: opening file data.atm_gray
(PID.TID 0000.0001) // =======================================================
(PID.TID 0000.0001) // Parameter file "data.atm_gray"
(PID.TID 0000.0001) // =======================================================
(PID.TID 0000.0001) >
(PID.TID 0000.0001) > &atmosphere_nml
(PID.TID 0000.0001) >    turb = .TRUE.,
(PID.TID 0000.0001) >    ldry_convection = .false.,
(PID.TID 0000.0001) >    lwet_convection = .TRUE.,
(PID.TID 0000.0001) >    do_virtual = .false.,
(PID.TID 0000.0001) >    two_stream = .true.,
(PID.TID 0000.0001) >    mixed_layer_bc = .false.,
(PID.TID 0000.0001) >    roughness_heat = 0.05,
(PID.TID 0000.0001) >    roughness_moist = 0.05,
(PID.TID 0000.0001) >    roughness_mom = 0.05,
(PID.TID 0000.0001) > /
(PID.TID 0000.0001) >
(PID.TID 0000.0001) > &radiation_nml
(PID.TID 0000.0001) >  select_incSW  = 1,
(PID.TID 0000.0001) >  solar_constant= 1365.,
(PID.TID 0000.0001) ># yearLength=
(PID.TID 0000.0001) ># yearPhase =
(PID.TID 0000.0001) ># obliquity =
(PID.TID 0000.0001) >  del_sol=1.,
(PID.TID 0000.0001) ># ir_tau_eq=
(PID.TID 0000.0001) ># ir_tau_pole=
(PID.TID 0000.0001) >  atm_abs= 0.22,
(PID.TID 0000.0001) ># value that Ruth is using as default:
(PID.TID 0000.0001) ># atm_abs= 0.2486,
(PID.TID 0000.0001) ># sw_diff=
(PID.TID 0000.0001) ># linear_tau=
(PID.TID 0000.0001) ># del_sw=
(PID.TID 0000.0001) >  albedo_value=0.38,
(PID.TID 0000.0001) ># window=
(PID.TID 0000.0001) ># wv_exponent=
(PID.TID 0000.0001) ># solar_exponent=
(PID.TID 0000.0001) >  wv_exponent=0.,
(PID.TID 0000.0001) > /
(PID.TID 0000.0001) >
(PID.TID 0000.0001) > &lscale_cond_nml
(PID.TID 0000.0001) ># hc =
(PID.TID 0000.0001) ># do_evap=
(PID.TID 0000.0001) > /
(PID.TID 0000.0001) >
(PID.TID 0000.0001) > &dargan_bettsmiller_nml
(PID.TID 0000.0001) >#-- default:
(PID.TID 0000.0001) >#   tau_bm = 7200.,
(PID.TID 0000.0001) >#   rhbm   = 0.8,
(PID.TID 0000.0001) >#   do_virtual   = .FALSE.,
(PID.TID 0000.0001) >#   do_shallower = .FALSE.,
(PID.TID 0000.0001) >#   do_changeqref= .FALSE.,
(PID.TID 0000.0001) >#   do_envsat    = .FALSE.,
(PID.TID 0000.0001) >#   do_taucape   = .FALSE.,
(PID.TID 0000.0001) >#     capetaubm  = 900.,
(PID.TID 0000.0001) >#     tau_min    = 2400.,
(PID.TID 0000.0001) >#   do_bm_shift  = .FALSE.,
(PID.TID 0000.0001) >#-- POG choice:
(PID.TID 0000.0001) >#  rhbm = 0.7,
(PID.TID 0000.0001) >   do_virtual= .TRUE.,
(PID.TID 0000.0001) >   do_shallower= .TRUE.,
(PID.TID 0000.0001) > /
(PID.TID 0000.0001) >
(PID.TID 0000.0001) > &surface_flux_nml
(PID.TID 0000.0001) > /
(PID.TID 0000.0001) >
(PID.TID 0000.0001) > &vert_turb_driver_nml
(PID.TID 0000.0001) >#  do_shallow_conv, do_mellor_yamada,
(PID.TID 0000.0001) >#  gust_scheme, constant_gust, use_tau,
(PID.TID 0000.0001) >#  do_molecular_diffusion
(PID.TID 0000.0001) >  do_mellor_yamada=.FALSE.,
(PID.TID 0000.0001) > /
(PID.TID 0000.0001) >
(PID.TID 0000.0001) > &diffusivity_nml
(PID.TID 0000.0001) >#  fixed_depth, depth_0, frac_inner,
(PID.TID 0000.0001) >#  rich_crit_pbl, entr_ratio, parcel_buoy,
(PID.TID 0000.0001) >#  znom, free_atm_diff, free_atm_skyhi_diff,
(PID.TID 0000.0001) >#  pbl_mcm, rich_crit_diff, mix_len, rich_prandtl,
(PID.TID 0000.0001) >#  background_m, background_t, ampns, ampns_max,
(PID.TID 0000.0001) >#  do_virtual_non_mcm
(PID.TID 0000.0001) > /
(PID.TID 0000.0001) >
(PID.TID 0000.0001) > &monin_obukhov_nml
(PID.TID 0000.0001) > /
(PID.TID 0000.0001) >
(PID.TID 0000.0001) > &my25_turb_nml
(PID.TID 0000.0001) > /
(PID.TID 0000.0001) >
(PID.TID 0000.0001) > &shallow_conv_nml
(PID.TID 0000.0001) > /
(PID.TID 0000.0001) >
(PID.TID 0000.0001) > &mixed_layer_nml
(PID.TID 0000.0001) ># evaporation, qflux_amp, depth, qflux_width
(PID.TID 0000.0001) >  depth=5000.,
(PID.TID 0000.0001) > /
(PID.TID 0000.0001) 
(PID.TID 0000.0001) DARGAB_BETTSMILLER_INIT: finished reading data.atm_gray
(PID.TID 0000.0001) RADIATION_INIT: opening data.atm_gray
(PID.TID 0000.0001)  OPEN_COPY_DATA_FILE: opening file data.atm_gray
(PID.TID 0000.0001) // =======================================================
(PID.TID 0000.0001) // Parameter file "data.atm_gray"
(PID.TID 0000.0001) // =======================================================
(PID.TID 0000.0001) >
(PID.TID 0000.0001) > &atmosphere_nml
(PID.TID 0000.0001) >    turb = .TRUE.,
(PID.TID 0000.0001) >    ldry_convection = .false.,
(PID.TID 0000.0001) >    lwet_convection = .TRUE.,
(PID.TID 0000.0001) >    do_virtual = .false.,
(PID.TID 0000.0001) >    two_stream = .true.,
(PID.TID 0000.0001) >    mixed_layer_bc = .false.,
(PID.TID 0000.0001) >    roughness_heat = 0.05,
(PID.TID 0000.0001) >    roughness_moist = 0.05,
(PID.TID 0000.0001) >    roughness_mom = 0.05,
(PID.TID 0000.0001) > /
(PID.TID 0000.0001) >
(PID.TID 0000.0001) > &radiation_nml
(PID.TID 0000.0001) >  select_incSW  = 1,
(PID.TID 0000.0001) >  solar_constant= 1365.,
(PID.TID 0000.0001) ># yearLength=
(PID.TID 0000.0001) ># yearPhase =
(PID.TID 0000.0001) ># obliquity =
(PID.TID 0000.0001) >  del_sol=1.,
(PID.TID 0000.0001) ># ir_tau_eq=
(PID.TID 0000.0001) ># ir_tau_pole=
(PID.TID 0000.0001) >  atm_abs= 0.22,
(PID.TID 0000.0001) ># value that Ruth is using as default:
(PID.TID 0000.0001) ># atm_abs= 0.2486,
(PID.TID 0000.0001) ># sw_diff=
(PID.TID 0000.0001) ># linear_tau=
(PID.TID 0000.0001) ># del_sw=
(PID.TID 0000.0001) >  albedo_value=0.38,
(PID.TID 0000.0001) ># window=
(PID.TID 0000.0001) ># wv_exponent=
(PID.TID 0000.0001) ># solar_exponent=
(PID.TID 0000.0001) >  wv_exponent=0.,
(PID.TID 0000.0001) > /
(PID.TID 0000.0001) >
(PID.TID 0000.0001) > &lscale_cond_nml
(PID.TID 0000.0001) ># hc =
(PID.TID 0000.0001) ># do_evap=
(PID.TID 0000.0001) > /
(PID.TID 0000.0001) >
(PID.TID 0000.0001) > &dargan_bettsmiller_nml
(PID.TID 0000.0001) >#-- default:
(PID.TID 0000.0001) >#   tau_bm = 7200.,
(PID.TID 0000.0001) >#   rhbm   = 0.8,
(PID.TID 0000.0001) >#   do_virtual   = .FALSE.,
(PID.TID 0000.0001) >#   do_shallower = .FALSE.,
(PID.TID 0000.0001) >#   do_changeqref= .FALSE.,
(PID.TID 0000.0001) >#   do_envsat    = .FALSE.,
(PID.TID 0000.0001) >#   do_taucape   = .FALSE.,
(PID.TID 0000.0001) >#     capetaubm  = 900.,
(PID.TID 0000.0001) >#     tau_min    = 2400.,
(PID.TID 0000.0001) >#   do_bm_shift  = .FALSE.,
(PID.TID 0000.0001) >#-- POG choice:
(PID.TID 0000.0001) >#  rhbm = 0.7,
(PID.TID 0000.0001) >   do_virtual= .TRUE.,
(PID.TID 0000.0001) >   do_shallower= .TRUE.,
(PID.TID 0000.0001) > /
(PID.TID 0000.0001) >
(PID.TID 0000.0001) > &surface_flux_nml
(PID.TID 0000.0001) > /
(PID.TID 0000.0001) >
(PID.TID 0000.0001) > &vert_turb_driver_nml
(PID.TID 0000.0001) >#  do_shallow_conv, do_mellor_yamada,
(PID.TID 0000.0001) >#  gust_scheme, constant_gust, use_tau,
(PID.TID 0000.0001) >#  do_molecular_diffusion
(PID.TID 0000.0001) >  do_mellor_yamada=.FALSE.,
(PID.TID 0000.0001) > /
(PID.TID 0000.0001) >
(PID.TID 0000.0001) > &diffusivity_nml
(PID.TID 0000.0001) >#  fixed_depth, depth_0, frac_inner,
(PID.TID 0000.0001) >#  rich_crit_pbl, entr_ratio, parcel_buoy,
(PID.TID 0000.0001) >#  znom, free_atm_diff, free_atm_skyhi_diff,
(PID.TID 0000.0001) >#  pbl_mcm, rich_crit_diff, mix_len, rich_prandtl,
(PID.TID 0000.0001) >#  background_m, background_t, ampns, ampns_max,
(PID.TID 0000.0001) >#  do_virtual_non_mcm
(PID.TID 0000.0001) > /
(PID.TID 0000.0001) >
(PID.TID 0000.0001) > &monin_obukhov_nml
(PID.TID 0000.0001) > /
(PID.TID 0000.0001) >
(PID.TID 0000.0001) > &my25_turb_nml
(PID.TID 0000.0001) > /
(PID.TID 0000.0001) >
(PID.TID 0000.0001) > &shallow_conv_nml
(PID.TID 0000.0001) > /
(PID.TID 0000.0001) >
(PID.TID 0000.0001) > &mixed_layer_nml
(PID.TID 0000.0001) ># evaporation, qflux_amp, depth, qflux_width
(PID.TID 0000.0001) >  depth=5000.,
(PID.TID 0000.0001) > /
(PID.TID 0000.0001) 
(PID.TID 0000.0001) RADIATION_INIT: finished reading data.atm_gray
(PID.TID 0000.0001) VERT_TURB_DRIVER_INIT: opening data.atm_gray
(PID.TID 0000.0001)  OPEN_COPY_DATA_FILE: opening file data.atm_gray
(PID.TID 0000.0001) // =======================================================
(PID.TID 0000.0001) // Parameter file "data.atm_gray"
(PID.TID 0000.0001) // =======================================================
(PID.TID 0000.0001) >
(PID.TID 0000.0001) > &atmosphere_nml
(PID.TID 0000.0001) >    turb = .TRUE.,
(PID.TID 0000.0001) >    ldry_convection = .false.,
(PID.TID 0000.0001) >    lwet_convection = .TRUE.,
(PID.TID 0000.0001) >    do_virtual = .false.,
(PID.TID 0000.0001) >    two_stream = .true.,
(PID.TID 0000.0001) >    mixed_layer_bc = .false.,
(PID.TID 0000.0001) >    roughness_heat = 0.05,
(PID.TID 0000.0001) >    roughness_moist = 0.05,
(PID.TID 0000.0001) >    roughness_mom = 0.05,
(PID.TID 0000.0001) > /
(PID.TID 0000.0001) >
(PID.TID 0000.0001) > &radiation_nml
(PID.TID 0000.0001) >  select_incSW  = 1,
(PID.TID 0000.0001) >  solar_constant= 1365.,
(PID.TID 0000.0001) ># yearLength=
(PID.TID 0000.0001) ># yearPhase =
(PID.TID 0000.0001) ># obliquity =
(PID.TID 0000.0001) >  del_sol=1.,
(PID.TID 0000.0001) ># ir_tau_eq=
(PID.TID 0000.0001) ># ir_tau_pole=
(PID.TID 0000.0001) >  atm_abs= 0.22,
(PID.TID 0000.0001) ># value that Ruth is using as default:
(PID.TID 0000.0001) ># atm_abs= 0.2486,
(PID.TID 0000.0001) ># sw_diff=
(PID.TID 0000.0001) ># linear_tau=
(PID.TID 0000.0001) ># del_sw=
(PID.TID 0000.0001) >  albedo_value=0.38,
(PID.TID 0000.0001) ># window=
(PID.TID 0000.0001) ># wv_exponent=
(PID.TID 0000.0001) ># solar_exponent=
(PID.TID 0000.0001) >  wv_exponent=0.,
(PID.TID 0000.0001) > /
(PID.TID 0000.0001) >
(PID.TID 0000.0001) > &lscale_cond_nml
(PID.TID 0000.0001) ># hc =
(PID.TID 0000.0001) ># do_evap=
(PID.TID 0000.0001) > /
(PID.TID 0000.0001) >
(PID.TID 0000.0001) > &dargan_bettsmiller_nml
(PID.TID 0000.0001) >#-- default:
(PID.TID 0000.0001) >#   tau_bm = 7200.,
(PID.TID 0000.0001) >#   rhbm   = 0.8,
(PID.TID 0000.0001) >#   do_virtual   = .FALSE.,
(PID.TID 0000.0001) >#   do_shallower = .FALSE.,
(PID.TID 0000.0001) >#   do_changeqref= .FALSE.,
(PID.TID 0000.0001) >#   do_envsat    = .FALSE.,
(PID.TID 0000.0001) >#   do_taucape   = .FALSE.,
(PID.TID 0000.0001) >#     capetaubm  = 900.,
(PID.TID 0000.0001) >#     tau_min    = 2400.,
(PID.TID 0000.0001) >#   do_bm_shift  = .FALSE.,
(PID.TID 0000.0001) >#-- POG choice:
(PID.TID 0000.0001) >#  rhbm = 0.7,
(PID.TID 0000.0001) >   do_virtual= .TRUE.,
(PID.TID 0000.0001) >   do_shallower= .TRUE.,
(PID.TID 0000.0001) > /
(PID.TID 0000.0001) >
(PID.TID 0000.0001) > &surface_flux_nml
(PID.TID 0000.0001) > /
(PID.TID 0000.0001) >
(PID.TID 0000.0001) > &vert_turb_driver_nml
(PID.TID 0000.0001) >#  do_shallow_conv, do_mellor_yamada,
(PID.TID 0000.0001) >#  gust_scheme, constant_gust, use_tau,
(PID.TID 0000.0001) >#  do_molecular_diffusion
(PID.TID 0000.0001) >  do_mellor_yamada=.FALSE.,
(PID.TID 0000.0001) > /
(PID.TID 0000.0001) >
(PID.TID 0000.0001) > &diffusivity_nml
(PID.TID 0000.0001) >#  fixed_depth, depth_0, frac_inner,
(PID.TID 0000.0001) >#  rich_crit_pbl, entr_ratio, parcel_buoy,
(PID.TID 0000.0001) >#  znom, free_atm_diff, free_atm_skyhi_diff,
(PID.TID 0000.0001) >#  pbl_mcm, rich_crit_diff, mix_len, rich_prandtl,
(PID.TID 0000.0001) >#  background_m, background_t, ampns, ampns_max,
(PID.TID 0000.0001) >#  do_virtual_non_mcm
(PID.TID 0000.0001) > /
(PID.TID 0000.0001) >
(PID.TID 0000.0001) > &monin_obukhov_nml
(PID.TID 0000.0001) > /
(PID.TID 0000.0001) >
(PID.TID 0000.0001) > &my25_turb_nml
(PID.TID 0000.0001) > /
(PID.TID 0000.0001) >
(PID.TID 0000.0001) > &shallow_conv_nml
(PID.TID 0000.0001) > /
(PID.TID 0000.0001) >
(PID.TID 0000.0001) > &mixed_layer_nml
(PID.TID 0000.0001) ># evaporation, qflux_amp, depth, qflux_width
(PID.TID 0000.0001) >  depth=5000.,
(PID.TID 0000.0001) > /
(PID.TID 0000.0001) 
(PID.TID 0000.0001) VERT_TURB_DRIVER_INIT: finished reading data.atm_gray
(PID.TID 0000.0001) ------------------------------------------------------------
(PID.TID 0000.0001) DIAGNOSTICS_SET_LEVELS: done
(PID.TID 0000.0001)  Total Nb of available Diagnostics: ndiagt=   221
(PID.TID 0000.0001)  write list of available Diagnostics to file: available_diagnostics.log
(PID.TID 0000.0001) SETDIAG: Allocate  1 x 12 Levels for Diagnostic #    23 ETAN
(PID.TID 0000.0001) SETDIAG: Allocate  1 x 12 Levels for Diagnostic #    24 ETANSQ
(PID.TID 0000.0001) SETDIAG: Allocate  1 x 12 Levels for Diagnostic #    25 DETADT2
(PID.TID 0000.0001) SETDIAG: Allocate  1 x 12 Levels for Diagnostic #   211 AtPhCAPE
(PID.TID 0000.0001) SETDIAG: Allocate  1 x 12 Levels for Diagnostic #   198 AtPhCnvP
(PID.TID 0000.0001) SETDIAG: Allocate  1 x 12 Levels for Diagnostic #   199 AtPhLscP
(PID.TID 0000.0001) SETDIAG: Allocate  1 x 12 Levels for Diagnostic #   207 AtPhSens
(PID.TID 0000.0001) SETDIAG: Allocate  1 x 12 Levels for Diagnostic #   208 AtPhEvap
(PID.TID 0000.0001) SETDIAG: Allocate  1 x 12 Levels for Diagnostic #   209 AtPhTauX
(PID.TID 0000.0001) SETDIAG: Allocate  1 x 12 Levels for Diagnostic #   210 AtPhTauY
(PID.TID 0000.0001) SETDIAG: Allocate  1 x 12 Levels for Diagnostic #   191 AtPh_SST
(PID.TID 0000.0001) SETDIAG: Allocate  1 x 12 Levels for Diagnostic #   200 AtPhInSR
(PID.TID 0000.0001) SETDIAG: Allocate  1 x 12 Levels for Diagnostic #   202 AtPhOLR
(PID.TID 0000.0001) SETDIAG: Allocate  1 x 12 Levels for Diagnostic #   204 AtPhNSSR
(PID.TID 0000.0001) SETDIAG: Allocate  1 x 12 Levels for Diagnostic #   205 AtPhDSLR
(PID.TID 0000.0001) SETDIAG: Allocate  1 x 12 Levels for Diagnostic #   206 AtPhUSLR
(PID.TID 0000.0001) SETDIAG: Allocate 26 x  4 Levels for Diagnostic #    29 UVEL
(PID.TID 0000.0001) SETDIAG: Allocate 26 x  4 Levels for Diagnostic #    30 VVEL
(PID.TID 0000.0001) SETDIAG: Allocate 26 x  4 Levels for Diagnostic #    31 WVEL
(PID.TID 0000.0001) SETDIAG: Allocate 26 x  4 Levels for Diagnostic #    26 THETA
(PID.TID 0000.0001) SETDIAG: Allocate 26 x  4 Levels for Diagnostic #    27 SALT
(PID.TID 0000.0001) SETDIAG: Allocate 26 x  4 Levels for Diagnostic #    34 UVELSQ
(PID.TID 0000.0001) SETDIAG: Allocate 26 x  4 Levels for Diagnostic #    35 VVELSQ
(PID.TID 0000.0001) SETDIAG: Allocate 26 x  4 Levels for Diagnostic #    36 WVELSQ
(PID.TID 0000.0001) SETDIAG: Allocate 26 x  4 Levels for Diagnostic #    32 THETASQ
(PID.TID 0000.0001) SETDIAG: Allocate 26 x  4 Levels for Diagnostic #    33 SALTSQ
(PID.TID 0000.0001) SETDIAG: Allocate 26 x  4 Levels for Diagnostic #    43 UVELMASS
(PID.TID 0000.0001) SETDIAG: Allocate 26 x  4 Levels for Diagnostic #    44 VVELMASS
(PID.TID 0000.0001) SETDIAG: Allocate 26 x  4 Levels for Diagnostic #    39 UV_VEL_C
(PID.TID 0000.0001) SETDIAG: Allocate 26 x  4 Levels for Diagnostic #    28 RELHUM
(PID.TID 0000.0001) SETDIAG: Allocate 26 x  4 Levels for Diagnostic #   109 ADVx_TH
(PID.TID 0000.0001) SETDIAG: Allocate 26 x  4 Levels for Diagnostic #   110 ADVy_TH
(PID.TID 0000.0001) SETDIAG: Allocate 26 x  4 Levels for Diagnostic #   108 ADVr_TH
(PID.TID 0000.0001) SETDIAG: Allocate 26 x  4 Levels for Diagnostic #   116 ADVx_SLT
(PID.TID 0000.0001) SETDIAG: Allocate 26 x  4 Levels for Diagnostic #   117 ADVy_SLT
(PID.TID 0000.0001) SETDIAG: Allocate 26 x  4 Levels for Diagnostic #   115 ADVr_SLT
(PID.TID 0000.0001)   space allocated for all diagnostics:    2272 levels
(PID.TID 0000.0001)   set mate pointer for diag #    29  UVEL     , Parms: UUR     MR , mate:    30
(PID.TID 0000.0001)   set mate pointer for diag #    30  VVEL     , Parms: VVR     MR , mate:    29
(PID.TID 0000.0001)   set mate pointer for diag #    34  UVELSQ   , Parms: UURP    MR , mate:    35
(PID.TID 0000.0001)   set mate pointer for diag #    35  VVELSQ   , Parms: VVRP    MR , mate:    34
(PID.TID 0000.0001)   set mate pointer for diag #    43  UVELMASS , Parms: UUr     MR , mate:    44
(PID.TID 0000.0001)   set mate pointer for diag #    44  VVELMASS , Parms: VVr     MR , mate:    43
(PID.TID 0000.0001)   set mate pointer for diag #    39  UV_VEL_C , Parms: UMR     MR , mate:    39
(PID.TID 0000.0001)   set mate pointer for diag #   109  ADVx_TH  , Parms: UU      MR , mate:   110
(PID.TID 0000.0001)   set mate pointer for diag #   110  ADVy_TH  , Parms: VV      MR , mate:   109
(PID.TID 0000.0001)   set mate pointer for diag #   116  ADVx_SLT , Parms: UU      MR , mate:   117
(PID.TID 0000.0001)   set mate pointer for diag #   117  ADVy_SLT , Parms: VV      MR , mate:   116
(PID.TID 0000.0001) DIAGNOSTICS_SET_POINTERS: Set levels for Outp.Stream: surfDiag
(PID.TID 0000.0001)  Levels:       1.
(PID.TID 0000.0001) DIAGNOSTICS_SET_POINTERS: Set levels for Outp.Stream: dynDiag
(PID.TID 0000.0001)  Levels:       1.   2.   3.   4.   5.   6.   7.   8.   9.  10.  11.  12.  13.  14.  15.  16.  17.  18.  19.  20.
(PID.TID 0000.0001)  Levels:      21.  22.  23.  24.  25.  26.
(PID.TID 0000.0001) DIAGNOSTICS_SET_POINTERS: done
(PID.TID 0000.0001) ------------------------------------------------------------
(PID.TID 0000.0001) DIAGSTATS_SET_REGIONS: define no region
(PID.TID 0000.0001) ------------------------------------------------------------
(PID.TID 0000.0001) SETDIAG: Allocate  1 Levels for Stats-Diag #    23 ETAN
(PID.TID 0000.0001) SETDIAG: Allocate 26 Levels for Stats-Diag #    26 THETA
(PID.TID 0000.0001) SETDIAG: Allocate 26 Levels for Stats-Diag #    27 SALT
(PID.TID 0000.0001) SETDIAG: Allocate 26 Levels for Stats-Diag #    28 RELHUM
(PID.TID 0000.0001) SETDIAG: Allocate 26 Levels for Stats-Diag #    37 UE_VEL_C
(PID.TID 0000.0001) SETDIAG: Allocate 26 Levels for Stats-Diag #    38 VN_VEL_C
(PID.TID 0000.0001) SETDIAG: Allocate 26 Levels for Stats-Diag #    31 WVEL
(PID.TID 0000.0001) SETDIAG: Allocate 26 Levels for Stats-Diag #   192 AtPhdTdt
(PID.TID 0000.0001) SETDIAG: Allocate 26 Levels for Stats-Diag #   193 AtPhdQdt
(PID.TID 0000.0001) SETDIAG: Allocate 26 Levels for Stats-Diag #   194 AtPhdUdt
(PID.TID 0000.0001) SETDIAG: Allocate 26 Levels for Stats-Diag #   195 AtPhdVdt
(PID.TID 0000.0001) SETDIAG: Allocate 26 Levels for Stats-Diag #   196 AtPhDifT
(PID.TID 0000.0001) SETDIAG: Allocate 26 Levels for Stats-Diag #   197 AtPhDifM
(PID.TID 0000.0001) SETDIAG: Allocate 26 Levels for Stats-Diag #   221 AtPhDisH
(PID.TID 0000.0001) SETDIAG: Allocate 26 Levels for Stats-Diag #   219 AtPhdtTg
(PID.TID 0000.0001) SETDIAG: Allocate 26 Levels for Stats-Diag #   220 AtPhdtQg
(PID.TID 0000.0001) SETDIAG: Allocate 26 Levels for Stats-Diag #   190 SHAP_dKE
(PID.TID 0000.0001) SETDIAG: Allocate 26 Levels for Stats-Diag #    98 MoistCor
(PID.TID 0000.0001) SETDIAG: Allocate  1 Levels for Stats-Diag #   207 AtPhSens
(PID.TID 0000.0001) SETDIAG: Allocate  1 Levels for Stats-Diag #   208 AtPhEvap
(PID.TID 0000.0001) SETDIAG: Allocate  1 Levels for Stats-Diag #   209 AtPhTauX
(PID.TID 0000.0001) SETDIAG: Allocate  1 Levels for Stats-Diag #   210 AtPhTauY
(PID.TID 0000.0001) SETDIAG: Allocate  1 Levels for Stats-Diag #   211 AtPhCAPE
(PID.TID 0000.0001) SETDIAG: Allocate  1 Levels for Stats-Diag #   198 AtPhCnvP
(PID.TID 0000.0001) SETDIAG: Allocate  1 Levels for Stats-Diag #   199 AtPhLscP
[...]
(PID.TID 0000.0001) %MON dynstat_eta_mean             =   3.4276315750819E-13
(PID.TID 0000.0001) %MON dynstat_eta_sd               =   3.6797315041189E+03
(PID.TID 0000.0001) %MON dynstat_eta_del2             =   8.7229438386733E-01
(PID.TID 0000.0001) %MON dynstat_uvel_max             =   3.6733485588189E+01
(PID.TID 0000.0001) %MON dynstat_uvel_min             =  -3.6729544886059E+01
(PID.TID 0000.0001) %MON dynstat_uvel_mean            =   1.5896771368140E+00
(PID.TID 0000.0001) %MON dynstat_uvel_sd              =   1.0908618980212E+01
(PID.TID 0000.0001) %MON dynstat_uvel_del2            =   1.9901143062024E-03
(PID.TID 0000.0001) %MON dynstat_vvel_max             =   3.6718191751988E+01
(PID.TID 0000.0001) %MON dynstat_vvel_min             =  -3.6721311955784E+01
(PID.TID 0000.0001) %MON dynstat_vvel_mean            =   1.6072265157809E+00
(PID.TID 0000.0001) %MON dynstat_vvel_sd              =   1.0905987561581E+01
(PID.TID 0000.0001) %MON dynstat_vvel_del2            =   1.9894285263888E-03
(PID.TID 0000.0001) %MON dynstat_wvel_max             =   3.2953614832650E-01
(PID.TID 0000.0001) %MON dynstat_wvel_min             =  -2.4301200245399E-01
(PID.TID 0000.0001) %MON dynstat_wvel_mean            =   1.0063727669165E-16
(PID.TID 0000.0001) %MON dynstat_wvel_sd              =   1.1178942657069E-01
(PID.TID 0000.0001) %MON dynstat_wvel_del2            =   9.7910704189344E-05
(PID.TID 0000.0001) %MON dynstat_theta_max            =   1.1579071695275E+03
(PID.TID 0000.0001) %MON dynstat_theta_min            =   2.5848082562800E+02
(PID.TID 0000.0001) %MON dynstat_theta_mean           =   3.2784603061297E+02
(PID.TID 0000.0001) %MON dynstat_theta_sd             =   9.0438430665088E+01
(PID.TID 0000.0001) %MON dynstat_theta_del2           =   6.8640498557300E-04
(PID.TID 0000.0001) %MON dynstat_salt_max             =   2.2352664180877E-02
(PID.TID 0000.0001) %MON dynstat_salt_min             =   4.7214660611091-209
(PID.TID 0000.0001) %MON dynstat_salt_mean            =   1.9468853495002E-03
(PID.TID 0000.0001) %MON dynstat_salt_sd              =   3.9893846552441E-03
(PID.TID 0000.0001) %MON dynstat_salt_del2            =   8.4807671297691E-07
(PID.TID 0000.0001) %MON advcfl_uvel_max              =   1.0984632803685E-01
(PID.TID 0000.0001) %MON advcfl_vvel_max              =   1.0981369280651E-01
(PID.TID 0000.0001) %MON advcfl_wvel_max              =   1.3310066058583E-02
(PID.TID 0000.0001) %MON advcfl_W_hf_max              =   1.5752445685291E-02
(PID.TID 0000.0001) %MON am_eta_mean                  =  -3.1740832737398E+11
(PID.TID 0000.0001) %MON am_uZo_mean                  =   3.1674318647817E+11
(PID.TID 0000.0001) %MON am_tot_mean                  =  -6.6514089581659E+08
(PID.TID 0000.0001) %MON pe_b_mean                    =   5.7347421720756E+01
(PID.TID 0000.0001) %MON ke_max                       =   6.8600452300398E+02
(PID.TID 0000.0001) %MON ke_mean                      =   1.2152439161071E+02
(PID.TID 0000.0001) %MON ke_vol                       =   5.0986421042784E+19
(PID.TID 0000.0001) %MON vort_r_min                   =  -1.6225471647225E-05
(PID.TID 0000.0001) %MON vort_r_max                   =   1.6215843802763E-05
(PID.TID 0000.0001) %MON vort_a_mean                  =   2.2552467598823E-19
(PID.TID 0000.0001) %MON vort_a_sd                    =   8.5642423889797E-05
(PID.TID 0000.0001) %MON vort_p_mean                  =   2.2552416073328E-19
(PID.TID 0000.0001) %MON vort_p_sd                    =   8.4267491412427E-05
(PID.TID 0000.0001) %MON surfExpan_theta_mean         =  -3.6601867193918E+00
(PID.TID 0000.0001) %MON surfExpan_salt_mean          =  -3.9321606054134E-04
(PID.TID 0000.0001) %MON surfExpan_Heat_mean          =  -3.2917894815254E+02
(PID.TID 0000.0001) %MON En_Budget_T2PE_mean          =   6.7657261654430E+01
(PID.TID 0000.0001) // =======================================================
(PID.TID 0000.0001) // End MONITOR dynamic field statistics
(PID.TID 0000.0001) // =======================================================
(PID.TID 0000.0001) DIAGSTATS_CLOSE_IO: close file: dynStDiag.0000000000.txt , unit=     9
(PID.TID 0000.0001) DIAGSTATS_CLOSE_IO: close file: diffStDiag.0000000000.txt , unit=    10
(PID.TID 0000.0001) DIAGSTATS_CLOSE_IO: close file: flxStDiag.0000000000.txt , unit=    16
(PID.TID 0000.0001) %CHECKPOINT        40 ckptA
(PID.TID 0000.0001)   Seconds in section "ALL                    [THE_MODEL_MAIN]":
(PID.TID 0000.0001)           User time:   129.09999999999999
(PID.TID 0000.0001)         System time:  0.83000000000000007
(PID.TID 0000.0001)     Wall clock time:   130.22254395484924
(PID.TID 0000.0001)          No. starts:           1
(PID.TID 0000.0001)           No. stops:           1
(PID.TID 0000.0001)   Seconds in section "INITIALISE_FIXED       [THE_MODEL_MAIN]":
(PID.TID 0000.0001)           User time:  0.29999999999999999
(PID.TID 0000.0001)         System time:  2.99999999999999989E-002
(PID.TID 0000.0001)     Wall clock time:  0.32979512214660645
(PID.TID 0000.0001)          No. starts:           1
(PID.TID 0000.0001)           No. stops:           1
(PID.TID 0000.0001)   Seconds in section "THE_MAIN_LOOP          [THE_MODEL_MAIN]":
(PID.TID 0000.0001)           User time:   128.79999999999998
(PID.TID 0000.0001)         System time:  0.80000000000000004
(PID.TID 0000.0001)     Wall clock time:   129.89270591735840
(PID.TID 0000.0001)          No. starts:           1
(PID.TID 0000.0001)           No. stops:           1
(PID.TID 0000.0001)   Seconds in section "INITIALISE_VARIA    [THE_MAIN_LOOP]":
(PID.TID 0000.0001)           User time:   1.3200000000000001
(PID.TID 0000.0001)         System time:  8.99999999999999967E-002
(PID.TID 0000.0001)     Wall clock time:   1.4157800674438477
(PID.TID 0000.0001)          No. starts:           1
(PID.TID 0000.0001)           No. stops:           1
(PID.TID 0000.0001)   Seconds in section "MAIN LOOP           [THE_MAIN_LOOP]":
(PID.TID 0000.0001)           User time:   127.47999999999999
(PID.TID 0000.0001)         System time:  0.71000000000000008
(PID.TID 0000.0001)     Wall clock time:   128.47689318656921
(PID.TID 0000.0001)          No. starts:           1
(PID.TID 0000.0001)           No. stops:           1
(PID.TID 0000.0001)   Seconds in section "MAIN_DO_LOOP        [THE_MAIN_LOOP]":
(PID.TID 0000.0001)           User time:   127.47999999999995
(PID.TID 0000.0001)         System time:  0.71000000000000019
(PID.TID 0000.0001)     Wall clock time:   128.47652053833008
(PID.TID 0000.0001)          No. starts:          40
(PID.TID 0000.0001)           No. stops:          40
(PID.TID 0000.0001)   Seconds in section "FORWARD_STEP        [MAIN_DO_LOOP]":
(PID.TID 0000.0001)           User time:   127.47999999999995
(PID.TID 0000.0001)         System time:  0.71000000000000019
(PID.TID 0000.0001)     Wall clock time:   128.47578406333923
(PID.TID 0000.0001)          No. starts:          40
(PID.TID 0000.0001)           No. stops:          40
(PID.TID 0000.0001)   Seconds in section "DO_STATEVARS_DIAGS  [FORWARD_STEP]":
(PID.TID 0000.0001)           User time:   7.2400000000000375
(PID.TID 0000.0001)         System time:   0.0000000000000000
(PID.TID 0000.0001)     Wall clock time:   7.1757519245147705
(PID.TID 0000.0001)          No. starts:         120
(PID.TID 0000.0001)           No. stops:         120
(PID.TID 0000.0001)   Seconds in section "LOAD_FIELDS_DRIVER  [FORWARD_STEP]":
(PID.TID 0000.0001)           User time:  0.12999999999998124
(PID.TID 0000.0001)         System time:   0.0000000000000000
(PID.TID 0000.0001)     Wall clock time:  0.12624073028564453
(PID.TID 0000.0001)          No. starts:          40
(PID.TID 0000.0001)           No. stops:          40
(PID.TID 0000.0001)   Seconds in section "EXTERNAL_FLDS_LOAD [LOAD_FLDS_DRIVER]":
(PID.TID 0000.0001)           User time:   0.0000000000000000
(PID.TID 0000.0001)         System time:   0.0000000000000000
(PID.TID 0000.0001)     Wall clock time:  3.85522842407226563E-004
(PID.TID 0000.0001)          No. starts:          40
(PID.TID 0000.0001)           No. stops:          40
(PID.TID 0000.0001)   Seconds in section "CPL_EXPORT-IMPORT  [FORWARD_STEP]":
(PID.TID 0000.0001)           User time:  2.00000000000102318E-002
(PID.TID 0000.0001)         System time:   0.0000000000000000
(PID.TID 0000.0001)     Wall clock time:  1.31096839904785156E-002
(PID.TID 0000.0001)          No. starts:          40
(PID.TID 0000.0001)           No. stops:          40
(PID.TID 0000.0001)   Seconds in section "DO_ATMOSPHERIC_PHYS [FORWARD_STEP]":
(PID.TID 0000.0001)           User time:   18.760000000000034
(PID.TID 0000.0001)         System time:  0.68000000000000016
(PID.TID 0000.0001)     Wall clock time:   19.502166509628296
(PID.TID 0000.0001)          No. starts:          40
(PID.TID 0000.0001)           No. stops:          40
(PID.TID 0000.0001)   Seconds in section "ATM_PHYS_DRIVER [DO_ATMOSPHERIC_PHYS]":
(PID.TID 0000.0001)           User time:   18.270000000000024
(PID.TID 0000.0001)         System time:  0.68000000000000016
(PID.TID 0000.0001)     Wall clock time:   18.967142820358276
(PID.TID 0000.0001)          No. starts:          40
(PID.TID 0000.0001)           No. stops:          40
(PID.TID 0000.0001)   Seconds in section "DO_OCEANIC_PHYS     [FORWARD_STEP]":
(PID.TID 0000.0001)           User time:  2.00000000000102318E-002
(PID.TID 0000.0001)         System time:   0.0000000000000000
(PID.TID 0000.0001)     Wall clock time:  9.21440124511718750E-003
(PID.TID 0000.0001)          No. starts:          40
(PID.TID 0000.0001)           No. stops:          40
(PID.TID 0000.0001)   Seconds in section "DYNAMICS            [FORWARD_STEP]":
(PID.TID 0000.0001)           User time:   27.620000000000047
(PID.TID 0000.0001)         System time:   0.0000000000000000
(PID.TID 0000.0001)     Wall clock time:   27.715946197509766
(PID.TID 0000.0001)          No. starts:          40
(PID.TID 0000.0001)           No. stops:          40
(PID.TID 0000.0001)   Seconds in section "UPDATE_R_STAR       [FORWARD_STEP]":
(PID.TID 0000.0001)           User time:   2.0499999999999829
(PID.TID 0000.0001)         System time:   0.0000000000000000
(PID.TID 0000.0001)     Wall clock time:   2.0553250312805176
(PID.TID 0000.0001)          No. starts:          40
(PID.TID 0000.0001)           No. stops:          40
(PID.TID 0000.0001)   Seconds in section "UPDATE_CG2D         [FORWARD_STEP]":
(PID.TID 0000.0001)           User time:  0.75999999999999091
(PID.TID 0000.0001)         System time:   0.0000000000000000
(PID.TID 0000.0001)     Wall clock time:  0.77844977378845215
(PID.TID 0000.0001)          No. starts:          40
(PID.TID 0000.0001)           No. stops:          40
(PID.TID 0000.0001)   Seconds in section "SOLVE_FOR_PRESSURE  [FORWARD_STEP]":
(PID.TID 0000.0001)           User time:   2.6400000000000006
(PID.TID 0000.0001)         System time:   0.0000000000000000
(PID.TID 0000.0001)     Wall clock time:   2.6132979393005371
(PID.TID 0000.0001)          No. starts:          40
(PID.TID 0000.0001)           No. stops:          40
(PID.TID 0000.0001)   Seconds in section "MOM_CORRECTION_STEP [FORWARD_STEP]":
(PID.TID 0000.0001)           User time:   14.659999999999982
(PID.TID 0000.0001)         System time:   0.0000000000000000
(PID.TID 0000.0001)     Wall clock time:   14.706380128860474
(PID.TID 0000.0001)          No. starts:          40
(PID.TID 0000.0001)           No. stops:          40
(PID.TID 0000.0001)   Seconds in section "SHAP_FILT_UV       [MOM_CORR_STEP]":
(PID.TID 0000.0001)           User time:   13.789999999999992
(PID.TID 0000.0001)         System time:   0.0000000000000000
(PID.TID 0000.0001)     Wall clock time:   13.805646657943726
(PID.TID 0000.0001)          No. starts:          40
(PID.TID 0000.0001)           No. stops:          40
(PID.TID 0000.0001)   Seconds in section "INTEGR_CONTINUITY   [FORWARD_STEP]":
(PID.TID 0000.0001)           User time:   2.3900000000000148
(PID.TID 0000.0001)         System time:   0.0000000000000000
(PID.TID 0000.0001)     Wall clock time:   2.4047906398773193
(PID.TID 0000.0001)          No. starts:          40
(PID.TID 0000.0001)           No. stops:          40
(PID.TID 0000.0001)   Seconds in section "CALC_R_STAR         [FORWARD_STEP]":
(PID.TID 0000.0001)           User time:  0.29999999999998295
(PID.TID 0000.0001)         System time:   0.0000000000000000
(PID.TID 0000.0001)     Wall clock time:  0.24723005294799805
(PID.TID 0000.0001)          No. starts:          40
(PID.TID 0000.0001)           No. stops:          40
(PID.TID 0000.0001)   Seconds in section "BLOCKING_EXCHANGES  [FORWARD_STEP]":
(PID.TID 0000.0001)           User time:   1.7900000000000773
(PID.TID 0000.0001)         System time:   0.0000000000000000
(PID.TID 0000.0001)     Wall clock time:   1.7998778820037842
(PID.TID 0000.0001)          No. starts:          80
(PID.TID 0000.0001)           No. stops:          80
(PID.TID 0000.0001)   Seconds in section "THERMODYNAMICS      [FORWARD_STEP]":
(PID.TID 0000.0001)           User time:   29.239999999999938
(PID.TID 0000.0001)         System time:   0.0000000000000000
(PID.TID 0000.0001)     Wall clock time:   29.311347723007202
(PID.TID 0000.0001)          No. starts:          40
(PID.TID 0000.0001)           No. stops:          40
(PID.TID 0000.0001)   Seconds in section "TRC_CORRECTION_STEP [FORWARD_STEP]":
(PID.TID 0000.0001)           User time:   5.4300000000000068
(PID.TID 0000.0001)         System time:   0.0000000000000000
(PID.TID 0000.0001)     Wall clock time:   5.4594361782073975
(PID.TID 0000.0001)          No. starts:          40
(PID.TID 0000.0001)           No. stops:          40
(PID.TID 0000.0001)   Seconds in section "SHAP_FILT_TS       [TRC_CORR_STEP]":
(PID.TID 0000.0001)           User time:   5.4300000000000068
(PID.TID 0000.0001)         System time:   0.0000000000000000
(PID.TID 0000.0001)     Wall clock time:   5.4585909843444824
(PID.TID 0000.0001)          No. starts:          40
(PID.TID 0000.0001)           No. stops:          40
(PID.TID 0000.0001)   Seconds in section "MONITOR             [FORWARD_STEP]":
(PID.TID 0000.0001)           User time:   14.259999999999962
(PID.TID 0000.0001)         System time:  1.00000000000000089E-002
(PID.TID 0000.0001)     Wall clock time:   14.362982034683228
(PID.TID 0000.0001)          No. starts:          40
(PID.TID 0000.0001)           No. stops:          40
(PID.TID 0000.0001)   Seconds in section "DO_THE_MODEL_IO     [FORWARD_STEP]":
(PID.TID 0000.0001)           User time:  6.99999999999931788E-002
(PID.TID 0000.0001)         System time:  1.00000000000000089E-002
(PID.TID 0000.0001)     Wall clock time:  7.54730701446533203E-002
(PID.TID 0000.0001)          No. starts:          40
(PID.TID 0000.0001)           No. stops:          40
(PID.TID 0000.0001)   Seconds in section "DO_WRITE_PICKUP     [FORWARD_STEP]":
(PID.TID 0000.0001)           User time:  9.00000000000034106E-002
(PID.TID 0000.0001)         System time:  1.00000000000000089E-002
(PID.TID 0000.0001)     Wall clock time:  0.10977864265441895
(PID.TID 0000.0001)          No. starts:          40
(PID.TID 0000.0001)           No. stops:          40
(PID.TID 0000.0001) // ======================================================
(PID.TID 0000.0001) // Tile <-> Tile communication statistics
(PID.TID 0000.0001) // ======================================================
(PID.TID 0000.0001) // o Tile number: 000001
(PID.TID 0000.0001) //         No. X exchanges =              0
(PID.TID 0000.0001) //            Max. X spins =              0
(PID.TID 0000.0001) //            Min. X spins =     1000000000
(PID.TID 0000.0001) //          Total. X spins =              0
(PID.TID 0000.0001) //            Avg. X spins =       0.00E+00
(PID.TID 0000.0001) //         No. Y exchanges =              0
(PID.TID 0000.0001) //            Max. Y spins =              0
(PID.TID 0000.0001) //            Min. Y spins =     1000000000
(PID.TID 0000.0001) //          Total. Y spins =              0
(PID.TID 0000.0001) //            Avg. Y spins =       0.00E+00
(PID.TID 0000.0001) // o Tile number: 000002
(PID.TID 0000.0001) //         No. X exchanges =              0
(PID.TID 0000.0001) //            Max. X spins =              0
(PID.TID 0000.0001) //            Min. X spins =     1000000000
(PID.TID 0000.0001) //          Total. X spins =              0
(PID.TID 0000.0001) //            Avg. X spins =       0.00E+00
(PID.TID 0000.0001) //         No. Y exchanges =              0
(PID.TID 0000.0001) //            Max. Y spins =              0
(PID.TID 0000.0001) //            Min. Y spins =     1000000000
(PID.TID 0000.0001) //          Total. Y spins =              0
(PID.TID 0000.0001) //            Avg. Y spins =       0.00E+00
(PID.TID 0000.0001) // o Tile number: 000003
(PID.TID 0000.0001) //         No. X exchanges =              0
(PID.TID 0000.0001) //            Max. X spins =              0
(PID.TID 0000.0001) //            Min. X spins =     1000000000
(PID.TID 0000.0001) //          Total. X spins =              0
(PID.TID 0000.0001) //            Avg. X spins =       0.00E+00
(PID.TID 0000.0001) //         No. Y exchanges =              0
(PID.TID 0000.0001) //            Max. Y spins =              0
(PID.TID 0000.0001) //            Min. Y spins =     1000000000
(PID.TID 0000.0001) //          Total. Y spins =              0
(PID.TID 0000.0001) //            Avg. Y spins =       0.00E+00
(PID.TID 0000.0001) // o Tile number: 000004
(PID.TID 0000.0001) //         No. X exchanges =              0
(PID.TID 0000.0001) //            Max. X spins =              0
(PID.TID 0000.0001) //            Min. X spins =     1000000000
(PID.TID 0000.0001) //          Total. X spins =              0
(PID.TID 0000.0001) //            Avg. X spins =       0.00E+00
(PID.TID 0000.0001) //         No. Y exchanges =              0
(PID.TID 0000.0001) //            Max. Y spins =              0
(PID.TID 0000.0001) //            Min. Y spins =     1000000000
(PID.TID 0000.0001) //          Total. Y spins =              0
(PID.TID 0000.0001) //            Avg. Y spins =       0.00E+00
(PID.TID 0000.0001) // o Tile number: 000005
(PID.TID 0000.0001) //         No. X exchanges =              0
(PID.TID 0000.0001) //            Max. X spins =              0
(PID.TID 0000.0001) //            Min. X spins =     1000000000
(PID.TID 0000.0001) //          Total. X spins =              0
(PID.TID 0000.0001) //            Avg. X spins =       0.00E+00
(PID.TID 0000.0001) //         No. Y exchanges =              0
(PID.TID 0000.0001) //            Max. Y spins =              0
(PID.TID 0000.0001) //            Min. Y spins =     1000000000
(PID.TID 0000.0001) //          Total. Y spins =              0
(PID.TID 0000.0001) //            Avg. Y spins =       0.00E+00
(PID.TID 0000.0001) // o Tile number: 000006
(PID.TID 0000.0001) //         No. X exchanges =              0
(PID.TID 0000.0001) //            Max. X spins =              0
(PID.TID 0000.0001) //            Min. X spins =     1000000000
(PID.TID 0000.0001) //          Total. X spins =              0
(PID.TID 0000.0001) //            Avg. X spins =       0.00E+00
(PID.TID 0000.0001) //         No. Y exchanges =              0
(PID.TID 0000.0001) //            Max. Y spins =              0
(PID.TID 0000.0001) //            Min. Y spins =     1000000000
(PID.TID 0000.0001) //          Total. Y spins =              0
(PID.TID 0000.0001) //            Avg. Y spins =       0.00E+00
(PID.TID 0000.0001) // o Thread number: 000001
(PID.TID 0000.0001) //            No. barriers =          17532
(PID.TID 0000.0001) //      Max. barrier spins =              1
(PID.TID 0000.0001) //      Min. barrier spins =              1
(PID.TID 0000.0001) //     Total barrier spins =          17532
(PID.TID 0000.0001) //      Avg. barrier spins =       1.00E+00
PROGRAM MAIN: Execution ended Normally
