(PID.TID 0000.0001) 
(PID.TID 0000.0001) // ======================================================
(PID.TID 0000.0001) //                      MITgcm UV
(PID.TID 0000.0001) //                      =========
(PID.TID 0000.0001) // ======================================================
(PID.TID 0000.0001) // execution environment starting up...
(PID.TID 0000.0001) 
(PID.TID 0000.0001) // MITgcmUV version:  checkpoint68l
(PID.TID 0000.0001) // Build user:        atnguyen
(PID.TID 0000.0001) // Build host:        sverdrup.ices.utexas.edu
(PID.TID 0000.0001) // Build date:        Tue Nov  8 09:22:55 CST 2022
(PID.TID 0000.0001) 
(PID.TID 0000.0001) // =======================================================
(PID.TID 0000.0001) // Execution Environment parameter file "eedata"
(PID.TID 0000.0001) // =======================================================
(PID.TID 0000.0001) ># Example "eedata" file
(PID.TID 0000.0001) ># Lines beginning "#" are comments
(PID.TID 0000.0001) ># nTx - No. threads per process in X
(PID.TID 0000.0001) ># nTy - No. threads per process in Y
(PID.TID 0000.0001) > &EEPARMS
(PID.TID 0000.0001) > nTx=1,
(PID.TID 0000.0001) > nTy=1,
(PID.TID 0000.0001) > printMapIncludesZeros = .TRUE.
(PID.TID 0000.0001) > debugMode=.false.,
(PID.TID 0000.0001) > /
(PID.TID 0000.0001) ># Note: Some systems use & as the
(PID.TID 0000.0001) ># namelist terminator. Other systems
(PID.TID 0000.0001) ># use a / character (as shown here).
(PID.TID 0000.0001) 
(PID.TID 0000.0001) // =======================================================
(PID.TID 0000.0001) // Computational Grid Specification ( see files "SIZE.h" )
(PID.TID 0000.0001) //                                  ( and "eedata"       )
(PID.TID 0000.0001) // =======================================================
(PID.TID 0000.0001)      nPx =    1 ; /* No. processes in X */
(PID.TID 0000.0001)      nPy =    1 ; /* No. processes in Y */
(PID.TID 0000.0001)      nSx =    1 ; /* No. tiles in X per process */
(PID.TID 0000.0001)      nSy =    1 ; /* No. tiles in Y per process */
(PID.TID 0000.0001)      sNx =   20 ; /* Tile size in X */
(PID.TID 0000.0001)      sNy =   11 ; /* Tile size in Y */
(PID.TID 0000.0001)      OLx =    3 ; /* Tile overlap distance in X */
(PID.TID 0000.0001)      OLy =    3 ; /* Tile overlap distance in Y */
(PID.TID 0000.0001)      nTx =    1 ; /* No. threads in X per process */
(PID.TID 0000.0001)      nTy =    1 ; /* No. threads in Y per process */
(PID.TID 0000.0001)       Nr =   15 ; /* No. levels in the vertical   */
(PID.TID 0000.0001)       Nx =   20 ; /* Total domain size in X ( = nPx*nSx*sNx ) */
(PID.TID 0000.0001)       Ny =   11 ; /* Total domain size in Y ( = nPy*nSy*sNy ) */
(PID.TID 0000.0001)   nTiles =    1 ; /* Total no. tiles per process ( = nSx*nSy ) */
(PID.TID 0000.0001)   nProcs =    1 ; /* Total no. processes ( = nPx*nPy ) */
(PID.TID 0000.0001) nThreads =    1 ; /* Total no. threads per process ( = nTx*nTy ) */
(PID.TID 0000.0001) usingMPI =    F ; /* Flag used to control whether MPI is in use */
(PID.TID 0000.0001)                   /*  note: To execute a program with MPI calls */
(PID.TID 0000.0001)                   /*  it must be launched appropriately e.g     */
(PID.TID 0000.0001)                   /*  "mpirun -np 64 ......"                    */
(PID.TID 0000.0001) useCoupler=   F ; /* Flag used to control communications with   */
(PID.TID 0000.0001)                   /*  other model components, through a coupler */
(PID.TID 0000.0001) useNest2W_parent =    F ;/* Control 2-W Nesting comm */
(PID.TID 0000.0001) useNest2W_child  =    F ;/* Control 2-W Nesting comm */
(PID.TID 0000.0001) debugMode =    F ; /* print debug msg. (sequence of S/R calls)  */
(PID.TID 0000.0001) printMapIncludesZeros=    T ; /* print zeros in Std.Output maps */
(PID.TID 0000.0001) maxLengthPrt1D=   65 /* maxLength of 1D array printed to StdOut */
(PID.TID 0000.0001) 
(PID.TID 0000.0001) // ======================================================
(PID.TID 0000.0001) // Mapping of tiles to threads
(PID.TID 0000.0001) // ======================================================
(PID.TID 0000.0001) // -o- Thread   1, tiles (   1:   1,   1:   1)
(PID.TID 0000.0001) 
(PID.TID 0000.0001) // ======================================================
(PID.TID 0000.0001) // Tile <-> Tile connectvity table
(PID.TID 0000.0001) // ======================================================
(PID.TID 0000.0001) // Tile number: 000001 (process no. = 000000)
(PID.TID 0000.0001) //        WEST: Tile = 000001, Process = 000000, Comm = put
(PID.TID 0000.0001) //                bi = 000001, bj = 000001
(PID.TID 0000.0001) //        EAST: Tile = 000001, Process = 000000, Comm = put
(PID.TID 0000.0001) //                bi = 000001, bj = 000001
(PID.TID 0000.0001) //       SOUTH: Tile = 000001, Process = 000000, Comm = put
(PID.TID 0000.0001) //                bi = 000001, bj = 000001
(PID.TID 0000.0001) //       NORTH: Tile = 000001, Process = 000000, Comm = put
(PID.TID 0000.0001) //                bi = 000001, bj = 000001
(PID.TID 0000.0001) 
(PID.TID 0000.0001)  INI_PARMS: opening model parameter file "data"
(PID.TID 0000.0001)  OPEN_COPY_DATA_FILE: opening file data
(PID.TID 0000.0001) // =======================================================
(PID.TID 0000.0001) // Parameter file "data"
(PID.TID 0000.0001) // =======================================================
(PID.TID 0000.0001) ># ====================
(PID.TID 0000.0001) ># | Model parameters |
(PID.TID 0000.0001) ># ====================
(PID.TID 0000.0001) >#
(PID.TID 0000.0001) >#
(PID.TID 0000.0001) ># Continuous equation parameters
(PID.TID 0000.0001) > &PARM01
(PID.TID 0000.0001) > tRef=15*0.,
(PID.TID 0000.0001) > sRef=15*34.,
(PID.TID 0000.0001) > viscAz=0.00001,
(PID.TID 0000.0001) > viscC2smag=2.2,
(PID.TID 0000.0001) > diffKzT=0.00001,
(PID.TID 0000.0001) > diffKzS=0.00001,
(PID.TID 0000.0001) > diffKhT=20.,
(PID.TID 0000.0001) > diffKhS=20.,
(PID.TID 0000.0001) ># diffKhT=0.
(PID.TID 0000.0001) ># diffKhS=0.
(PID.TID 0000.0001) > no_slip_sides=.FALSE.,
(PID.TID 0000.0001) > no_slip_bottom=.TRUE.,
(PID.TID 0000.0001) > rigidLid=.FALSE.,
(PID.TID 0000.0001) > implicitFreeSurface=.TRUE.,
(PID.TID 0000.0001) > staggerTimeStep=.TRUE.,
(PID.TID 0000.0001) > tempAdvScheme=33,
(PID.TID 0000.0001) > saltAdvScheme=33,
(PID.TID 0000.0001) > eosType='JMD95Z',
(PID.TID 0000.0001) > f0=0.e-4,
(PID.TID 0000.0001) > beta=0.E-11,
(PID.TID 0000.0001) > selectAddFluid=1,
(PID.TID 0000.0001) > useSingleCpuIO=.TRUE.,
(PID.TID 0000.0001) > gravity=9.81,
(PID.TID 0000.0001) > rhonil=1029.,
(PID.TID 0000.0001) > rhoConst=1029.,
(PID.TID 0000.0001) > rhoConstFresh=1000.,
(PID.TID 0000.0001) > exactConserv=.TRUE.,
(PID.TID 0000.0001) >#
(PID.TID 0000.0001) >#set nlfs rfwf:
(PID.TID 0000.0001) > select_rStar=2,
(PID.TID 0000.0001) > nonlinFreeSurf=4,
(PID.TID 0000.0001) > useRealFreshWaterFlux=.TRUE.,
(PID.TID 0000.0001) >#set lfs virtual salt:
(PID.TID 0000.0001) ># nonlinFreeSurf=0,
(PID.TID 0000.0001) ># useRealFreshWaterFlux=.FALSE.,
(PID.TID 0000.0001) ># linFSconserveTr=.FALSE.,
(PID.TID 0000.0001) >#
(PID.TID 0000.0001) > debugLevel=1,
(PID.TID 0000.0001) > readBinaryPrec=64,
(PID.TID 0000.0001) > writeBinaryPrec=64,
(PID.TID 0000.0001) > /
(PID.TID 0000.0001) >
(PID.TID 0000.0001) ># Elliptic solver parameters
(PID.TID 0000.0001) > &PARM02
(PID.TID 0000.0001) ># cg2dMaxIters=300,
(PID.TID 0000.0001) ># cg2dTargetResidual=1.E-13,
(PID.TID 0000.0001) > cg3dMaxIters=20,
(PID.TID 0000.0001) > cg3dTargetResidual=1.E-8,
(PID.TID 0000.0001) > /
(PID.TID 0000.0001) >
(PID.TID 0000.0001) ># Time stepping parameters
(PID.TID 0000.0001) > &PARM03
(PID.TID 0000.0001) > nIter0=0,
(PID.TID 0000.0001) ># endTime=200.,
(PID.TID 0000.0001) ># endTime=10000.,
(PID.TID 0000.0001) > nTimeSteps=8,
(PID.TID 0000.0001) >#3 hrs
(PID.TID 0000.0001) ># nTimeSteps=432,
(PID.TID 0000.0001) >#14hrs
(PID.TID 0000.0001) ># nTimeSteps=2016,
(PID.TID 0000.0001) >#2 days
(PID.TID 0000.0001) ># endTime=172800.,
(PID.TID 0000.0001) ># nTimeSteps=6912.,
(PID.TID 0000.0001) >#3 days
(PID.TID 0000.0001) ># nTimeSteps=10368.,
(PID.TID 0000.0001) >#(31+30+31)*24*3600/25
(PID.TID 0000.0001) ># nTimeSteps=317952.,
(PID.TID 0000.0001) > deltaT=25.,
(PID.TID 0000.0001) > abEps=0.01,
(PID.TID 0000.0001) > pChkptFreq=0.,
(PID.TID 0000.0001) > chkptFreq=0.,
(PID.TID 0000.0001) ># dumpFreq=1000,
(PID.TID 0000.0001) > monitorSelect=1,
(PID.TID 0000.0001) ># monitorFreq=1000.,
(PID.TID 0000.0001) > monitorFreq=1.,
(PID.TID 0000.0001) >#when periodicExternalForcing is F, we read only 1 record in from
(PID.TID 0000.0001) >#iceplume_init_fixed and treat the input as constant forcing in time
(PID.TID 0000.0001) > periodicExternalForcing=.FALSE.,
(PID.TID 0000.0001) >#when periodicExternalForcing is T, we read in from external_fields_load
(PID.TID 0000.0001) >#and need accompanied variables to tell period and cycle.
(PID.TID 0000.0001) >#Potentially, we prefer iceplume to have its own period/cycle/flags so
(PID.TID 0000.0001) >#that we dont have conflict of these flags on at the same time of pkg/exf
(PID.TID 0000.0001) ># periodicExternalForcing=.TRUE.,
(PID.TID 0000.0001) ># externForcingPeriod=25.,
(PID.TID 0000.0001) ># externForcingCycle=225.,
(PID.TID 0000.0001) >#cycle: how many records before we loop back to beginning,
(PID.TID 0000.0001) >#e.g. 1 yr at monthly then at rec 13 we loop to beginning
(PID.TID 0000.0001) >#see get_periodic_rec in matlab folder for duplicates.
(PID.TID 0000.0001) > /
(PID.TID 0000.0001) >
(PID.TID 0000.0001) ># Gridding parameters
(PID.TID 0000.0001) > &PARM04
(PID.TID 0000.0001) > usingCartesianGrid=.TRUE.,
(PID.TID 0000.0001) > delXfile='delx_tiny.bin',
(PID.TID 0000.0001) > delYfile='dely_tiny.bin',
(PID.TID 0000.0001) > delZ= 15*10.,
(PID.TID 0000.0001) > /
(PID.TID 0000.0001) >
(PID.TID 0000.0001) ># Input datasets
(PID.TID 0000.0001) > &PARM05
(PID.TID 0000.0001) > bathyFile='bathymetry_tiny_closed.bin',
(PID.TID 0000.0001) > hydrogThetaFile='tempini_tiny.bin',
(PID.TID 0000.0001) > hydrogSaltFile ='saltini_tiny.bin',
(PID.TID 0000.0001) ># uVelInitFile = 'zeros_3d_real8.bin',
(PID.TID 0000.0001) ># vVelInitFile = 'vvel_init_1mps_ix19_iy6.bin',
(PID.TID 0000.0001) > /
(PID.TID 0000.0001) 
(PID.TID 0000.0001)  INI_PARMS ; starts to read PARM01
(PID.TID 0000.0001)  INI_PARMS ; read PARM01 : OK
(PID.TID 0000.0001)  INI_PARMS ; starts to read PARM02
(PID.TID 0000.0001)  INI_PARMS ; read PARM02 : OK
(PID.TID 0000.0001)  INI_PARMS ; starts to read PARM03
(PID.TID 0000.0001)  INI_PARMS ; read PARM03 : OK
(PID.TID 0000.0001)  INI_PARMS ; starts to read PARM04
(PID.TID 0000.0001)  INI_PARMS ; read PARM04 : OK
(PID.TID 0000.0001)  INI_PARMS ; starts to read PARM05
(PID.TID 0000.0001)  INI_PARMS ; read PARM05 : OK
(PID.TID 0000.0001)  INI_PARMS: finished reading file "data"
(PID.TID 0000.0001)  PACKAGES_BOOT: opening data.pkg
(PID.TID 0000.0001)  OPEN_COPY_DATA_FILE: opening file data.pkg
(PID.TID 0000.0001) // =======================================================
(PID.TID 0000.0001) // Parameter file "data.pkg"
(PID.TID 0000.0001) // =======================================================
(PID.TID 0000.0001) ># Packages
(PID.TID 0000.0001) > &PACKAGES
(PID.TID 0000.0001) > useOBCS=.FALSE.,
(PID.TID 0000.0001) > useDiagnostics=.TRUE.,
(PID.TID 0000.0001) > useICEPLUME=.TRUE.,
(PID.TID 0000.0001) > useEXF=.TRUE.,
(PID.TID 0000.0001) > useCAL=.TRUE.,
(PID.TID 0000.0001) > /
(PID.TID 0000.0001) 
(PID.TID 0000.0001)  PACKAGES_BOOT: finished reading data.pkg
(PID.TID 0000.0001)  PACKAGES_BOOT: On/Off package Summary
 --------  pkgs with a standard "usePKG" On/Off switch in "data.pkg":  --------
 pkg/obcs                 compiled but not used ( useOBCS                  = F )
 pkg/cal                  compiled   and   used ( useCAL                   = T )
 pkg/exf                  compiled   and   used ( useEXF                   = T )
 pkg/iceplume             compiled   and   used ( useICEPLUME              = T )
 pkg/diagnostics          compiled   and   used ( useDiagnostics           = T )
 -------- pkgs without standard "usePKG" On/Off switch in "data.pkg":  --------
 pkg/generic_advdiff      compiled   and   used ( useGAD                   = T )
 pkg/mom_common           compiled   and   used ( momStepping              = T )
 pkg/mom_vecinv           compiled but not used ( +vectorInvariantMomentum = F )
 pkg/mom_fluxform         compiled   and   used ( & not vectorInvariantMom = T )
 pkg/monitor              compiled   and   used ( monitorFreq > 0.         = T )
 pkg/debug                compiled but not used ( debugMode                = F )
 pkg/rw                   compiled   and   used
 pkg/mdsio                compiled   and   used
(PID.TID 0000.0001)  PACKAGES_BOOT: End of package Summary
(PID.TID 0000.0001) 
(PID.TID 0000.0001) CAL_READPARMS: opening data.cal
(PID.TID 0000.0001)  OPEN_COPY_DATA_FILE: opening file data.cal
(PID.TID 0000.0001) // =======================================================
(PID.TID 0000.0001) // Parameter file "data.cal"
(PID.TID 0000.0001) // =======================================================
(PID.TID 0000.0001) >#
(PID.TID 0000.0001) ># *******************
(PID.TID 0000.0001) ># Calendar Parameters
(PID.TID 0000.0001) ># *******************
(PID.TID 0000.0001) > &CAL_NML
(PID.TID 0000.0001) > TheCalendar='gregorian',
(PID.TID 0000.0001) ># TheCalendar='model',
(PID.TID 0000.0001) > startDate_1=20020101,
(PID.TID 0000.0001) > startDate_2=000000,
(PID.TID 0000.0001) > calendarDumps = .TRUE.,
(PID.TID 0000.0001) > /
(PID.TID 0000.0001) 
(PID.TID 0000.0001) CAL_READPARMS: finished reading data.cal
(PID.TID 0000.0001) EXF_READPARMS: opening data.exf
(PID.TID 0000.0001)  OPEN_COPY_DATA_FILE: opening file data.exf
(PID.TID 0000.0001) // =======================================================
(PID.TID 0000.0001) // Parameter file "data.exf"
(PID.TID 0000.0001) // =======================================================
(PID.TID 0000.0001) >#
(PID.TID 0000.0001) ># *********************
(PID.TID 0000.0001) ># External Forcing Data
(PID.TID 0000.0001) ># *********************
(PID.TID 0000.0001) > &EXF_NML_01
(PID.TID 0000.0001) >#
(PID.TID 0000.0001) > useExfCheckRange  = .TRUE.,
(PID.TID 0000.0001) >#366*24*3600=31622400
(PID.TID 0000.0001) > repeatPeriod      = 31622400.0,
(PID.TID 0000.0001) >#this is tricky here, as iceplume prec tied to exf param
(PID.TID 0000.0001) > exf_iprec         = 64,
(PID.TID 0000.0001) >#
(PID.TID 0000.0001) > /
(PID.TID 0000.0001) >
(PID.TID 0000.0001) ># *********************
(PID.TID 0000.0001) > &EXF_NML_02
(PID.TID 0000.0001) >##
(PID.TID 0000.0001) ># hfluxstartdate1   = 19781216,
(PID.TID 0000.0001) ># hfluxstartdate2   = 180000,
(PID.TID 0000.0001) ># hfluxperiod       = 2635200.0,
(PID.TID 0000.0001) >##
(PID.TID 0000.0001) ># sfluxstartdate1   = 19781216,
(PID.TID 0000.0001) ># sfluxstartdate2   = 180000,
(PID.TID 0000.0001) ># sfluxperiod       = 2635200.0,
(PID.TID 0000.0001) >##
(PID.TID 0000.0001) ># ustressstartdate1 = 19781216,
(PID.TID 0000.0001) ># ustressstartdate2 = 180000,
(PID.TID 0000.0001) ># ustressperiod     = 2635200.0,
(PID.TID 0000.0001) >##
(PID.TID 0000.0001) ># vstressstartdate1 = 19781216,
(PID.TID 0000.0001) ># vstressstartdate2 = 180000,
(PID.TID 0000.0001) ># vstressperiod     = 2635200.0,
(PID.TID 0000.0001) >##
(PID.TID 0000.0001) ># atempstartdate1   = 19781216,
(PID.TID 0000.0001) ># atempstartdate2   = 180000,
(PID.TID 0000.0001) ># atempperiod       = 2635200.0,
(PID.TID 0000.0001) >## atempperiod       = 86400.0,
(PID.TID 0000.0001) >##
(PID.TID 0000.0001) ># aqhstartdate1     = 19781216,
(PID.TID 0000.0001) ># aqhstartdate2     = 180000,
(PID.TID 0000.0001) ># aqhperiod         = 2635200.0,
(PID.TID 0000.0001) >##
(PID.TID 0000.0001) ># evapstartdate1    = 19781216,
(PID.TID 0000.0001) ># evapstartdate2    = 180000,
(PID.TID 0000.0001) ># evapperiod        = 2635200.0,
(PID.TID 0000.0001) >##
(PID.TID 0000.0001) ># precipstartdate1  = 19781216,
(PID.TID 0000.0001) ># precipstartdate2  = 180000,
(PID.TID 0000.0001) ># precipperiod      = 2635200.0,
(PID.TID 0000.0001) >##
(PID.TID 0000.0001) ># uwindstartdate1   = 19781216,
(PID.TID 0000.0001) ># uwindstartdate2   = 180000,
(PID.TID 0000.0001) ># uwindperiod       = 2635200.0,
(PID.TID 0000.0001) >##
(PID.TID 0000.0001) ># vwindstartdate1   = 19781216,
(PID.TID 0000.0001) ># vwindstartdate2   = 180000,
(PID.TID 0000.0001) ># vwindperiod       = 2635200.0,
(PID.TID 0000.0001) >##
(PID.TID 0000.0001) ># swfluxstartdate1  = 19781216,
(PID.TID 0000.0001) ># swfluxstartdate2  = 180000,
(PID.TID 0000.0001) ># swfluxperiod      = 2635200.0,
(PID.TID 0000.0001) >##
(PID.TID 0000.0001) ># lwfluxstartdate1  = 19781216,
(PID.TID 0000.0001) ># lwfluxstartdate2  = 180000,
(PID.TID 0000.0001) ># lwfluxperiod      = 2635200.0,
(PID.TID 0000.0001) >##
(PID.TID 0000.0001) ># swdownstartdate1  = 19781216,
(PID.TID 0000.0001) ># swdownstartdate2  = 180000,
(PID.TID 0000.0001) ># swdownperiod      = 2635200.0,
(PID.TID 0000.0001) >##
(PID.TID 0000.0001) ># lwdownstartdate1  = 19781216,
(PID.TID 0000.0001) ># lwdownstartdate2  = 180000,
(PID.TID 0000.0001) ># lwdownperiod      = 2635200.0,
(PID.TID 0000.0001) >##
(PID.TID 0000.0001) >## climsststartdate1  = 19781216,
(PID.TID 0000.0001) >## climsststartdate2  = 180000,
(PID.TID 0000.0001) >## climsstperiod      = 2635200.0,
(PID.TID 0000.0001) >## climsstTauRelax    = 0.0,
(PID.TID 0000.0001) >###
(PID.TID 0000.0001) >## climsssstartdate1  = 19781216,
(PID.TID 0000.0001) >## climsssstartdate2  = 180000,
(PID.TID 0000.0001) >## climsssperiod      = 2635200.0,
(PID.TID 0000.0001) >## climsssTauRelax    = 4142330.0,
(PID.TID 0000.0001) >##
(PID.TID 0000.0001) ># hfluxfile         = ' ',
(PID.TID 0000.0001) ># sfluxfile         = ' ',
(PID.TID 0000.0001) ># ustressfile       = ' ',
(PID.TID 0000.0001) ># vstressfile       = ' ',
(PID.TID 0000.0001) ># atempfile         = ' ',
(PID.TID 0000.0001) ># aqhfile           = ' ',
(PID.TID 0000.0001) ># uwindfile         = ' ',
(PID.TID 0000.0001) ># vwindfile         = ' ',
(PID.TID 0000.0001) >## evapfile          = ' ',
(PID.TID 0000.0001) ># precipfile        = ' ',
(PID.TID 0000.0001) ># lwfluxfile        = ' ',
(PID.TID 0000.0001) ># swfluxfile        = ' ',
(PID.TID 0000.0001) ># lwdownfile        = ' ',
(PID.TID 0000.0001) ># swdownfile        = ' ',
(PID.TID 0000.0001) ># runoffFile        = ' '
(PID.TID 0000.0001) ># climsstfile       = ' ',
(PID.TID 0000.0001) >## climsssfile       = ' ',
(PID.TID 0000.0001) >##
(PID.TID 0000.0001) > /
(PID.TID 0000.0001) >
(PID.TID 0000.0001) ># *********************
(PID.TID 0000.0001) > &EXF_NML_03
(PID.TID 0000.0001) > /
(PID.TID 0000.0001) >
(PID.TID 0000.0001) ># *********************
(PID.TID 0000.0001) > &EXF_NML_04
(PID.TID 0000.0001) > /
(PID.TID 0000.0001) 
(PID.TID 0000.0001) EXF_READPARMS: reading EXF_NML_01
(PID.TID 0000.0001) EXF_READPARMS: reading EXF_NML_02
(PID.TID 0000.0001) EXF_READPARMS: reading EXF_NML_03
(PID.TID 0000.0001) EXF_READPARMS: finished reading data.exf
(PID.TID 0000.0001)  ICEPLUME_READPARMS: opening data.iceplume
(PID.TID 0000.0001)  OPEN_COPY_DATA_FILE: opening file data.iceplume
(PID.TID 0000.0001) // =======================================================
(PID.TID 0000.0001) // Parameter file "data.iceplume"
(PID.TID 0000.0001) // =======================================================
(PID.TID 0000.0001) ># ***************
(PID.TID 0000.0001) ># ICEPLUME
(PID.TID 0000.0001) ># ***************
(PID.TID 0000.0001) >
(PID.TID 0000.0001) ># For plume:
(PID.TID 0000.0001) > &ICEPLUME_PARM01
(PID.TID 0000.0001) ># runoffVelfile = 'runoffVel_tiny_1mps.bin'
(PID.TID 0000.0001) ># runoffRadfile = 'runoffRad_tiny_8m3ps.bin'
(PID.TID 0000.0001) ># runoffQsgfile = 'runoffQsg_tiny_8m3ps.bin'
(PID.TID 0000.0001) >##the file below has 8 through all time, for checking with exf
(PID.TID 0000.0001) > runoffQsgfile = 'runoffQsg_tiny_8m3ps_9rec_constant.bin'
(PID.TID 0000.0001) > plumeMaskFile = 'plumeMask_tiny.bin'
(PID.TID 0000.0001) ># plumeMaskFile = 'zeros_tiny_real8.bin'
(PID.TID 0000.0001) > usePlumeDiagnostics=.TRUE.,
(PID.TID 0000.0001) >####
(PID.TID 0000.0001) >#conserveMass: when .false. we do NOT scaled Qsg+plumemelt, so the entire volume of FW, converted to mass
(PID.TID 0000.0001) >#and added into addMass is the full amount.  This is what we desire actually, especially for the case with
(PID.TID 0000.0001) >#nlfs+rfwf where the ocean dz is allowed to change.  In general this flag convention of true/false is very
(PID.TID 0000.0001) >#deceiving, in that when .true. we actually do NOT conserve mass but rather remove mass artificially.
(PID.TID 0000.0001) >#Should consider reversing the meaning..
(PID.TID 0000.0001) > conserveMass = .FALSE.,
(PID.TID 0000.0001) > T_sg_0 = 0.001,
(PID.TID 0000.0001) > S_sg_0 = 0.001,
(PID.TID 0000.0001) >## w_sg = 1.0,
(PID.TID 0000.0001) > wVel_sg_0 = 1.0,
(PID.TID 0000.0001) > iceTemp=-10.,
(PID.TID 0000.0001) > backgroundVel=0.017,
(PID.TID 0000.0001) ># rhoShelfice = 917.,
(PID.TID 0000.0001) > /
(PID.TID 0000.0001) >
(PID.TID 0000.0001) > &ICEPLUME_PARM02
(PID.TID 0000.0001) > /
(PID.TID 0000.0001) >
(PID.TID 0000.0001) > &ICEPLUME_PARM03
(PID.TID 0000.0001) > /
(PID.TID 0000.0001) >
(PID.TID 0000.0001) > &ICEPLUME_EXF_PARM04
(PID.TID 0000.0001) > runoffQsgstartdate1   = 20020101,
(PID.TID 0000.0001) > runoffQsgstartdate2   = 000000,
(PID.TID 0000.0001) > runoffQsgRepCycle     = 225.0,
(PID.TID 0000.0001) > runoffQsgperiod       = 25.0,
(PID.TID 0000.0001) > runoffQsg_inscal      = 1.0,
(PID.TID 0000.0001) ># runoffQsgRepCycle     = 31622400.0,
(PID.TID 0000.0001) ># runoffQsg_interpMethod = 0,
(PID.TID 0000.0001) >### runoffQsg_lon0       = 0.50D0,
(PID.TID 0000.0001) >### runoffQsg_lon_inc    = 1.0D0,
(PID.TID 0000.0001) >### runoffQsg_lat0       = -89.5D0,
(PID.TID 0000.0001) >### runoffQsg_lat_inc    = 179*1.,
(PID.TID 0000.0001) >### runoffQsg_nlon       = 360,
(PID.TID 0000.0001) >### runoffQsg_nlat       = 180,
(PID.TID 0000.0001) > /
(PID.TID 0000.0001) 
(PID.TID 0000.0001)  ICEPLUME_READPARMS: reading ICEPLUME_EXF_PARM04
(PID.TID 0000.0001)  ICEPLUME_READPARMS: finished reading data.iceplume
(PID.TID 0000.0001)  DIAGNOSTICS_READPARMS: opening data.diagnostics
(PID.TID 0000.0001)  OPEN_COPY_DATA_FILE: opening file data.diagnostics
(PID.TID 0000.0001) // =======================================================
(PID.TID 0000.0001) // Parameter file "data.diagnostics"
(PID.TID 0000.0001) // =======================================================
(PID.TID 0000.0001) ># Diagnostic Package Choices
(PID.TID 0000.0001) >#
(PID.TID 0000.0001) ># 2-D fields:
(PID.TID 0000.0001) ># =================
(PID.TID 0000.0001) >#
(PID.TID 0000.0001) ># ETAN     Perturbation of Surface (pressure, height) (Pa,m)
(PID.TID 0000.0001) >#
(PID.TID 0000.0001) ># monthly 3-D fields:
(PID.TID 0000.0001) ># ===================
(PID.TID 0000.0001) >#
(PID.TID 0000.0001) ># SALTanom Salt anomaly (=SALT-35; g/kg)
(PID.TID 0000.0001) ># THETA    Potential Temperature (degC,K)
(PID.TID 0000.0001) ># UVELMASS Zonal Mass-Weighted Comp of Velocity (m/s)
(PID.TID 0000.0001) ># VVELMASS Meridional Mass-Weighted Comp of Velocity (m/s)
(PID.TID 0000.0001) ># WVELMASS Vertical Mass-Weighted Comp of Velocity (m/s)
(PID.TID 0000.0001) >#
(PID.TID 0000.0001) > &diagnostics_list
(PID.TID 0000.0001) >   frequency(8) = 25.,
(PID.TID 0000.0001) >    fields(1:6,8) = 'icefrntW','icefrntT','icefrntS',
(PID.TID 0000.0001) >                    'icefrntR','icefrntM','icefrntA',
(PID.TID 0000.0001) >    filename(8) = 'diags/icefrnt_3d_set1',
(PID.TID 0000.0001) >   fileFlags(8) = 'D       ',
(PID.TID 0000.0001) >#
(PID.TID 0000.0001) >  frequency(1) = 25.0,
(PID.TID 0000.0001) >   fields(1:9,1) = 'ETAN    ','DETADT2 ','PHIBOT  ',
(PID.TID 0000.0001) >                   'MXLDEPTH','oceQnet ','oceFWflx',
(PID.TID 0000.0001) >                   'oceTAUX ','oceTAUY ','ETANSQ  ',
(PID.TID 0000.0001) >   filename(1) = 'diags/state_2d_set1',
(PID.TID 0000.0001) >   fileFlags(1) = 'D       ',
(PID.TID 0000.0001) >###---
(PID.TID 0000.0001) >  frequency(2) = 25.0,
(PID.TID 0000.0001) >   fields(1:4,2) = 'THETA   ','SALT    ',
(PID.TID 0000.0001) >                   'tAddMass','sAddMass',
(PID.TID 0000.0001) >#                   'DRHODR  ','RHOAnoma',
(PID.TID 0000.0001) >   filename(2) = 'diags/state_3d_set1',
(PID.TID 0000.0001) >   fileFlags(2) = 'D       ',
(PID.TID 0000.0001) >##---
(PID.TID 0000.0001) >  frequency(3) = 25.0,
(PID.TID 0000.0001) >   fields(1:3,3) = 'UVELMASS','VVELMASS','WVELMASS',
(PID.TID 0000.0001) >   filename(3) = 'diags/trsp_3d_set1',
(PID.TID 0000.0001) >   fileFlags(3) = 'D       ',
(PID.TID 0000.0001) >###---
(PID.TID 0000.0001) >##set below only works if we turn on pkg/exf
(PID.TID 0000.0001) >#  frequency(4) = 25.0,
(PID.TID 0000.0001) >#   fields(1:18,4) ='EXFpreci','EXFevap ','EXFroff ','EXFempmr',
(PID.TID 0000.0001) >#                   'EXFswdn ','EXFlwdn ','EXFswnet','EXFlwnet','EXFqnet ',
(PID.TID 0000.0001) >#                   'EXFatemp','EXFaqh  ','EXFtaux ','EXFtauy ',
(PID.TID 0000.0001) >#                   'EXFuwind','EXFvwind','EXFpress','EXFhs   ','EXFhl   ',
(PID.TID 0000.0001) >#   filename(4) = 'diags/exf_zflux_set1',
(PID.TID 0000.0001) >##                 'EXFroft ',
(PID.TID 0000.0001) >###---
(PID.TID 0000.0001) >  frequency(5) = -25.0,
(PID.TID 0000.0001) >   fields(1:2,5) = 'ETAN    ',
(PID.TID 0000.0001) >                   'PHIBOT  ',
(PID.TID 0000.0001) >   filename(5) = 'diags/budg2d_snap_set1',
(PID.TID 0000.0001) >   timePhase(5)= 0.,
(PID.TID 0000.0001) >   fileFlags(5) = 'D       ',
(PID.TID 0000.0001) >#'SIheff  ','SIhsnow ','SIarea  ','sIceLoad',
(PID.TID 0000.0001) >#####---
(PID.TID 0000.0001) >  frequency(9) = -25.0,
(PID.TID 0000.0001) >   fields(1:4,9) = 'THETA   ','SALT    ',
(PID.TID 0000.0001) >                   'tAddMass','sAddMass',
(PID.TID 0000.0001) >   filename(9) = 'diags/budg3d_snap_set3',
(PID.TID 0000.0001) >   timePhase(9)= 0.,
(PID.TID 0000.0001) >   fileFlags(9) = 'D       ',
(PID.TID 0000.0001) >#####---
(PID.TID 0000.0001) >  frequency(7) = 25.0,
(PID.TID 0000.0001) >   fields(1:4,7) = 'oceFWflx','TFLUX   ',
(PID.TID 0000.0001) >                   'SFLUX   ','oceQsw  ',
(PID.TID 0000.0001) >   filename(7) = 'diags/budg2d_zflux_set1',
(PID.TID 0000.0001) >   fileFlags(7) = 'D       ',
(PID.TID 0000.0001) >#                  'SPforcT1','SPforcS1',
(PID.TID 0000.0001) >#                  'SIatmFW ','SItflux ','oceSPflx',
(PID.TID 0000.0001) >#####---
(PID.TID 0000.0001) >###thse fields have "r" for vert int so just mult with drF
(PID.TID 0000.0001) >  frequency(14) = 25.0,
(PID.TID 0000.0001) >   fields(1:10,14) ='UVELMASS','VVELMASS',
(PID.TID 0000.0001) >                    'ADVx_TH ','ADVy_TH ','DFxE_TH ','DFyE_TH ',
(PID.TID 0000.0001) >                    'ADVx_SLT','ADVy_SLT','DFxE_SLT','DFyE_SLT',
(PID.TID 0000.0001) >#                    'AB_gT   ','AB_gS   ',
(PID.TID 0000.0001) >   filename(14) = 'diags/budg3d_hflux_set2',
(PID.TID 0000.0001) >   fileFlags(14) = 'D       ',
(PID.TID 0000.0001) >#the following are not transports but tendencies
(PID.TID 0000.0001) >#                 'oceSPtnd','oceEPtnd',
(PID.TID 0000.0001) >#####---
(PID.TID 0000.0001) >  frequency(17) = 25.0,
(PID.TID 0000.0001) >   fields(1:5,17) ='addMass ','IPmasspl','IPmassbg',
(PID.TID 0000.0001) >                   'IP_gTbg ','IP_gSbg ',
(PID.TID 0000.0001) >#'IP_gTplm','IP_gSplm',
(PID.TID 0000.0001) >   filename(17) = 'diags/budg3d_hflux_set3',
(PID.TID 0000.0001) >   fileFlags(17) = 'D       ',
(PID.TID 0000.0001) >#####---
(PID.TID 0000.0001) >  frequency(18) = 25.0,
(PID.TID 0000.0001) >   fields(1:2,18) ='gTaddMas','gSaddMas',
(PID.TID 0000.0001) >   filename(18) = 'diags/budg3d_tend',
(PID.TID 0000.0001) >   fileFlags(18) = 'D       ',
(PID.TID 0000.0001) >#####---
(PID.TID 0000.0001) >#  frequency(7) = 25.0,
(PID.TID 0000.0001) >#   fields(1:4,7) ='ADVxHEFF','ADVyHEFF',
(PID.TID 0000.0001) >#                  'ADVxSNOW','ADVySNOW',
(PID.TID 0000.0001) >#   filename(7) = 'diags/budg2d_hflux_set1',
(PID.TID 0000.0001) >#   fileFlags(7) = 'D       ',
(PID.TID 0000.0001) >##                ,'DFxEHEFF','DFyEHEFF'
(PID.TID 0000.0001) >##                ,'DFxESNOW','DFyESNOW'
(PID.TID 0000.0001) >#
(PID.TID 0000.0001) >## this one is important because it activates the vertical advection diags
(PID.TID 0000.0001) >  frequency(15) = 25.0,
(PID.TID 0000.0001) >   fields(1:4,15) ='WTHMASS ','WSLTMASS',
(PID.TID 0000.0001) >                   'oceSflux','oceQnet ',
(PID.TID 0000.0001) >#'SRELAX  ','TRELAX  ',
(PID.TID 0000.0001) >   filename(15) = 'diags/budg2d_zflux_set2',
(PID.TID 0000.0001) >   fileFlags(15) = 'D       ',
(PID.TID 0000.0001) >#                   'SIatmQnt','SIaaflux','SIsnPrcp','SIacSubl',
(PID.TID 0000.0001) >#'SIempmr ', SIempmr is identical to minus oceFWflx
(PID.TID 0000.0001) >#####---
(PID.TID 0000.0001) >  frequency(16) = 25.0,
(PID.TID 0000.0001) >   fields(1:7,16) ='WVELMASS',
(PID.TID 0000.0001) >                   'ADVr_TH ','DFrE_TH ',
(PID.TID 0000.0001) >                   'ADVr_SLT','DFrE_SLT',
(PID.TID 0000.0001) >                   'WTHMASS ','WSLTMASS',
(PID.TID 0000.0001) >#'DFrI_TH ','DFrI_SLT',
(PID.TID 0000.0001) >   filename(16) = 'diags/budg3d_zflux_set2',
(PID.TID 0000.0001) >   fileFlags(16) = 'D       ',
(PID.TID 0000.0001) >#WTHMASS,WSLTMASS  only needed for the 1st layer, not 3d
(PID.TID 0000.0001) >#####---
(PID.TID 0000.0001) >#####---
(PID.TID 0000.0001) >#  frequency(21) = 25.0,
(PID.TID 0000.0001) >#   fields(1:2,21) ='KPPg_TH ','KPPg_SLT',
(PID.TID 0000.0001) >##                   'oceSPtnd','oceEPtnd',
(PID.TID 0000.0001) >#   filename(21) = 'diags/budg3d_kpptend_set1',
(PID.TID 0000.0001) >#   fileFlags(21) = 'D       ',
(PID.TID 0000.0001) >#####note: TOT[T,S]TEND are useless unless mult also with hFacC prior to output
(PID.TID 0000.0001) >#####note: for what i run, AB_g[T,S] are all zeros, so saving space and not diag
(PID.TID 0000.0001) >#####                   'TOTTTEND','TOTSTEND','AB_gT   ','AB_gS   ',
(PID.TID 0000.0001) >#####---
(PID.TID 0000.0001) >###some fields not kpp nor tend, but need for integrated:
(PID.TID 0000.0001) >#  frequency(17) = 25.0,
(PID.TID 0000.0001) >#   fields(1:7,17) =
(PID.TID 0000.0001) >#                    'WVELMASS','ADVr_TH ','DFrE_TH ','DFrI_TH ',
(PID.TID 0000.0001) >#                    'ADVr_SLT','DFrE_SLT','DFrI_SLT',
(PID.TID 0000.0001) >##                    'KPPg_TH ','KPPg_SLT','oceSPtnd',
(PID.TID 0000.0001) >##                    'oceEPtnd',
(PID.TID 0000.0001) >#   filename(17) = 'diags/budg2d_kpptend_set1',
(PID.TID 0000.0001) >#   fileFlags(17) = 'DI      ',
(PID.TID 0000.0001) >###---
(PID.TID 0000.0001) > /
(PID.TID 0000.0001) ># Parameter for Diagnostics of per level statistics:
(PID.TID 0000.0001) >#-----------------
(PID.TID 0000.0001) ># for each output-stream:
(PID.TID 0000.0001) >#  stat_fname(n) : prefix of the output file name (only 8.c long) for
(PID.TID 0000.0001) >#outp.stream n
(PID.TID 0000.0001) >#  stat_freq(n):< 0 : write snap-shot output every |stat_freq| seconds
(PID.TID 0000.0001) >#               > 0 : write time-average output every stat_freq seconds
(PID.TID 0000.0001) >#  stat_phase(n)    : write at time = stat_phase + multiple of |stat_freq|
(PID.TID 0000.0001) >#  stat_region(:,n) : list of "regions" (default: 1 region only=global)
(PID.TID 0000.0001) >#  stat_fields(:,n) : list of diagnostics fields (8.c) (see
(PID.TID 0000.0001) >#"available_diagnostics.log"
(PID.TID 0000.0001) >#                 file for the list of all available diag. in this particular
(PID.TID 0000.0001) >#config)
(PID.TID 0000.0001) >#-----------------
(PID.TID 0000.0001) > &DIAG_STATIS_PARMS
(PID.TID 0000.0001) >#- an example just to check the agreement with MONITOR output:
(PID.TID 0000.0001) >#stat_fields(1,1)= 'ETAN    ','UVEL    ','VVEL    ','WVEL    ', 'THETA   ',
(PID.TID 0000.0001) >#   stat_fname(1)= 'dynStDiag',
(PID.TID 0000.0001) >#    stat_freq(1)= -864000.,
(PID.TID 0000.0001) >#   stat_phase(1)= 0.,
(PID.TID 0000.0001) > /
(PID.TID 0000.0001) 
(PID.TID 0000.0001) S/R DIAGNOSTICS_READPARMS, read namelist "diagnostics_list": start
(PID.TID 0000.0001) S/R DIAGNOSTICS_READPARMS, read namelist "diagnostics_list": OK
(PID.TID 0000.0001) S/R DIAGNOSTICS_READPARMS, read namelist "DIAG_STATIS_PARMS": start
(PID.TID 0000.0001) S/R DIAGNOSTICS_READPARMS, read namelist "DIAG_STATIS_PARMS": OK
(PID.TID 0000.0001)  DIAGNOSTICS_READPARMS: global parameter summary:
(PID.TID 0000.0001)  dumpAtLast = /* always write time-ave diags at the end */
(PID.TID 0000.0001)                   F
(PID.TID 0000.0001)     ;
(PID.TID 0000.0001)  diag_mnc =   /* write NetCDF output files */
(PID.TID 0000.0001)                   F
(PID.TID 0000.0001)     ;
(PID.TID 0000.0001)  useMissingValue = /* put MissingValue where mask = 0 */
(PID.TID 0000.0001)                   F
(PID.TID 0000.0001)     ;
(PID.TID 0000.0001)  diagCG_maxIters = /* max number of iters in diag_cg2d */
(PID.TID 0000.0001)                     150
(PID.TID 0000.0001)     ;
(PID.TID 0000.0001)  diagCG_resTarget = /* residual target for diag_cg2d */
(PID.TID 0000.0001)                 1.000000000000000E-07
(PID.TID 0000.0001)     ;
(PID.TID 0000.0001)  diagCG_pcOffDFac = /* preconditioner off-diagonal factor */
(PID.TID 0000.0001)                 9.611687812379854E-01
(PID.TID 0000.0001)     ;
(PID.TID 0000.0001) -----------------------------------------------------
(PID.TID 0000.0001)  DIAGNOSTICS_READPARMS: active diagnostics summary:
(PID.TID 0000.0001) -----------------------------------------------------
(PID.TID 0000.0001) Creating Output Stream: diags/state_2d_set1
(PID.TID 0000.0001) Output Frequency:         25.000000 ; Phase:           0.000000
(PID.TID 0000.0001)  Averaging Freq.:         25.000000 , Phase:           0.000000 , Cycle:   1
(PID.TID 0000.0001)  missing value: -9.990000000000E+02 ; F-Flags="D       "
(PID.TID 0000.0001)  Levels:    will be set later
(PID.TID 0000.0001)  Fields:    ETAN     DETADT2  PHIBOT   MXLDEPTH oceQnet  oceFWflx oceTAUX  oceTAUY  ETANSQ
(PID.TID 0000.0001) Creating Output Stream: diags/state_3d_set1
(PID.TID 0000.0001) Output Frequency:         25.000000 ; Phase:           0.000000
(PID.TID 0000.0001)  Averaging Freq.:         25.000000 , Phase:           0.000000 , Cycle:   1
(PID.TID 0000.0001)  missing value: -9.990000000000E+02 ; F-Flags="D       "
(PID.TID 0000.0001)  Levels:    will be set later
(PID.TID 0000.0001)  Fields:    THETA    SALT     tAddMass sAddMass
(PID.TID 0000.0001) Creating Output Stream: diags/trsp_3d_set1
(PID.TID 0000.0001) Output Frequency:         25.000000 ; Phase:           0.000000
(PID.TID 0000.0001)  Averaging Freq.:         25.000000 , Phase:           0.000000 , Cycle:   1
(PID.TID 0000.0001)  missing value: -9.990000000000E+02 ; F-Flags="D       "
(PID.TID 0000.0001)  Levels:    will be set later
(PID.TID 0000.0001)  Fields:    UVELMASS VVELMASS WVELMASS
(PID.TID 0000.0001) Creating Output Stream: diags/budg2d_snap_set1
(PID.TID 0000.0001) Output Frequency:        -25.000000 ; Phase:           0.000000
(PID.TID 0000.0001)  Averaging Freq.:          0.000000 , Phase:           0.000000 , Cycle:   1
(PID.TID 0000.0001)  missing value: -9.990000000000E+02 ; F-Flags="D       "
(PID.TID 0000.0001)  Levels:    will be set later
(PID.TID 0000.0001)  Fields:    ETAN     PHIBOT
(PID.TID 0000.0001) Creating Output Stream: diags/budg2d_zflux_set1
(PID.TID 0000.0001) Output Frequency:         25.000000 ; Phase:           0.000000
(PID.TID 0000.0001)  Averaging Freq.:         25.000000 , Phase:           0.000000 , Cycle:   1
(PID.TID 0000.0001)  missing value: -9.990000000000E+02 ; F-Flags="D       "
(PID.TID 0000.0001)  Levels:    will be set later
(PID.TID 0000.0001)  Fields:    oceFWflx TFLUX    SFLUX    oceQsw
(PID.TID 0000.0001) Creating Output Stream: diags/icefrnt_3d_set1
(PID.TID 0000.0001) Output Frequency:         25.000000 ; Phase:           0.000000
(PID.TID 0000.0001)  Averaging Freq.:         25.000000 , Phase:           0.000000 , Cycle:   1
(PID.TID 0000.0001)  missing value: -9.990000000000E+02 ; F-Flags="D       "
(PID.TID 0000.0001)  Levels:    will be set later
(PID.TID 0000.0001)  Fields:    icefrntW icefrntT icefrntS icefrntR icefrntM icefrntA
(PID.TID 0000.0001) Creating Output Stream: diags/budg3d_snap_set3
(PID.TID 0000.0001) Output Frequency:        -25.000000 ; Phase:           0.000000
(PID.TID 0000.0001)  Averaging Freq.:          0.000000 , Phase:           0.000000 , Cycle:   1
(PID.TID 0000.0001)  missing value: -9.990000000000E+02 ; F-Flags="D       "
(PID.TID 0000.0001)  Levels:    will be set later
(PID.TID 0000.0001)  Fields:    THETA    SALT     tAddMass sAddMass
(PID.TID 0000.0001) Creating Output Stream: diags/budg3d_hflux_set2
(PID.TID 0000.0001) Output Frequency:         25.000000 ; Phase:           0.000000
(PID.TID 0000.0001)  Averaging Freq.:         25.000000 , Phase:           0.000000 , Cycle:   1
(PID.TID 0000.0001)  missing value: -9.990000000000E+02 ; F-Flags="D       "
(PID.TID 0000.0001)  Levels:    will be set later
(PID.TID 0000.0001)  Fields:    UVELMASS VVELMASS ADVx_TH  ADVy_TH  DFxE_TH  DFyE_TH  ADVx_SLT ADVy_SLT DFxE_SLT DFyE_SLT
(PID.TID 0000.0001) Creating Output Stream: diags/budg2d_zflux_set2
(PID.TID 0000.0001) Output Frequency:         25.000000 ; Phase:           0.000000
(PID.TID 0000.0001)  Averaging Freq.:         25.000000 , Phase:           0.000000 , Cycle:   1
(PID.TID 0000.0001)  missing value: -9.990000000000E+02 ; F-Flags="D       "
(PID.TID 0000.0001)  Levels:    will be set later
(PID.TID 0000.0001)  Fields:    WTHMASS  WSLTMASS oceSflux oceQnet
(PID.TID 0000.0001) Creating Output Stream: diags/budg3d_zflux_set2
(PID.TID 0000.0001) Output Frequency:         25.000000 ; Phase:           0.000000
(PID.TID 0000.0001)  Averaging Freq.:         25.000000 , Phase:           0.000000 , Cycle:   1
(PID.TID 0000.0001)  missing value: -9.990000000000E+02 ; F-Flags="D       "
(PID.TID 0000.0001)  Levels:    will be set later
(PID.TID 0000.0001)  Fields:    WVELMASS ADVr_TH  DFrE_TH  ADVr_SLT DFrE_SLT WTHMASS  WSLTMASS
(PID.TID 0000.0001) Creating Output Stream: diags/budg3d_hflux_set3
(PID.TID 0000.0001) Output Frequency:         25.000000 ; Phase:           0.000000
(PID.TID 0000.0001)  Averaging Freq.:         25.000000 , Phase:           0.000000 , Cycle:   1
(PID.TID 0000.0001)  missing value: -9.990000000000E+02 ; F-Flags="D       "
(PID.TID 0000.0001)  Levels:    will be set later
(PID.TID 0000.0001)  Fields:    addMass  IPmasspl IPmassbg IP_gTbg  IP_gSbg
(PID.TID 0000.0001) Creating Output Stream: diags/budg3d_tend
(PID.TID 0000.0001) Output Frequency:         25.000000 ; Phase:           0.000000
(PID.TID 0000.0001)  Averaging Freq.:         25.000000 , Phase:           0.000000 , Cycle:   1
(PID.TID 0000.0001)  missing value: -9.990000000000E+02 ; F-Flags="D       "
(PID.TID 0000.0001)  Levels:    will be set later
(PID.TID 0000.0001)  Fields:    gTaddMas gSaddMas
(PID.TID 0000.0001) -----------------------------------------------------
(PID.TID 0000.0001)  DIAGNOSTICS_READPARMS: statistics diags. summary:
(PID.TID 0000.0001) -----------------------------------------------------
(PID.TID 0000.0001) 
(PID.TID 0000.0001) SET_PARMS: done
(PID.TID 0000.0001) S/R LOAD_GRID_SPACING: delX loaded from file: delx_tiny.bin
(PID.TID 0000.0001) S/R LOAD_GRID_SPACING: delY loaded from file: dely_tiny.bin
(PID.TID 0000.0001) Enter INI_VERTICAL_GRID: setInterFDr=    T ; setCenterDr=    F
(PID.TID 0000.0001) %MON XC_max                       =   3.9000000000000E+03
(PID.TID 0000.0001) %MON XC_min                       =   1.0000000000000E+02
(PID.TID 0000.0001) %MON XC_mean                      =   2.0000000000000E+03
(PID.TID 0000.0001) %MON XC_sd                        =   1.1532562594671E+03
(PID.TID 0000.0001) %MON XG_max                       =   3.8000000000000E+03
(PID.TID 0000.0001) %MON XG_min                       =   0.0000000000000E+00
(PID.TID 0000.0001) %MON XG_mean                      =   1.9000000000000E+03
(PID.TID 0000.0001) %MON XG_sd                        =   1.1532562594671E+03
(PID.TID 0000.0001) %MON DXC_max                      =   2.0000000000000E+02
(PID.TID 0000.0001) %MON DXC_min                      =   2.0000000000000E+02
(PID.TID 0000.0001) %MON DXC_mean                     =   2.0000000000000E+02
(PID.TID 0000.0001) %MON DXC_sd                       =   0.0000000000000E+00
(PID.TID 0000.0001) %MON DXF_max                      =   2.0000000000000E+02
(PID.TID 0000.0001) %MON DXF_min                      =   2.0000000000000E+02
(PID.TID 0000.0001) %MON DXF_mean                     =   2.0000000000000E+02
(PID.TID 0000.0001) %MON DXF_sd                       =   0.0000000000000E+00
(PID.TID 0000.0001) %MON DXG_max                      =   2.0000000000000E+02
(PID.TID 0000.0001) %MON DXG_min                      =   2.0000000000000E+02
(PID.TID 0000.0001) %MON DXG_mean                     =   2.0000000000000E+02
(PID.TID 0000.0001) %MON DXG_sd                       =   0.0000000000000E+00
(PID.TID 0000.0001) %MON DXV_max                      =   2.0000000000000E+02
(PID.TID 0000.0001) %MON DXV_min                      =   2.0000000000000E+02
(PID.TID 0000.0001) %MON DXV_mean                     =   2.0000000000000E+02
(PID.TID 0000.0001) %MON DXV_sd                       =   0.0000000000000E+00
(PID.TID 0000.0001) %MON YC_max                       =   2.1000000000000E+03
(PID.TID 0000.0001) %MON YC_min                       =   1.0000000000000E+02
(PID.TID 0000.0001) %MON YC_mean                      =   1.1000000000000E+03
(PID.TID 0000.0001) %MON YC_sd                        =   6.3245553203368E+02
(PID.TID 0000.0001) %MON YG_max                       =   2.0000000000000E+03
(PID.TID 0000.0001) %MON YG_min                       =   0.0000000000000E+00
(PID.TID 0000.0001) %MON YG_mean                      =   1.0000000000000E+03
(PID.TID 0000.0001) %MON YG_sd                        =   6.3245553203368E+02
(PID.TID 0000.0001) %MON DYC_max                      =   2.0000000000000E+02
(PID.TID 0000.0001) %MON DYC_min                      =   2.0000000000000E+02
(PID.TID 0000.0001) %MON DYC_mean                     =   2.0000000000000E+02
(PID.TID 0000.0001) %MON DYC_sd                       =   0.0000000000000E+00
(PID.TID 0000.0001) %MON DYF_max                      =   2.0000000000000E+02
(PID.TID 0000.0001) %MON DYF_min                      =   2.0000000000000E+02
(PID.TID 0000.0001) %MON DYF_mean                     =   2.0000000000000E+02
(PID.TID 0000.0001) %MON DYF_sd                       =   0.0000000000000E+00
(PID.TID 0000.0001) %MON DYG_max                      =   2.0000000000000E+02
(PID.TID 0000.0001) %MON DYG_min                      =   2.0000000000000E+02
(PID.TID 0000.0001) %MON DYG_mean                     =   2.0000000000000E+02
(PID.TID 0000.0001) %MON DYG_sd                       =   0.0000000000000E+00
(PID.TID 0000.0001) %MON DYU_max                      =   2.0000000000000E+02
(PID.TID 0000.0001) %MON DYU_min                      =   2.0000000000000E+02
(PID.TID 0000.0001) %MON DYU_mean                     =   2.0000000000000E+02
(PID.TID 0000.0001) %MON DYU_sd                       =   0.0000000000000E+00
(PID.TID 0000.0001) %MON RA_max                       =   4.0000000000000E+04
(PID.TID 0000.0001) %MON RA_min                       =   4.0000000000000E+04
(PID.TID 0000.0001) %MON RA_mean                      =   4.0000000000000E+04
(PID.TID 0000.0001) %MON RA_sd                        =   0.0000000000000E+00
(PID.TID 0000.0001) %MON RAW_max                      =   4.0000000000000E+04
(PID.TID 0000.0001) %MON RAW_min                      =   4.0000000000000E+04
(PID.TID 0000.0001) %MON RAW_mean                     =   4.0000000000000E+04
(PID.TID 0000.0001) %MON RAW_sd                       =   0.0000000000000E+00
(PID.TID 0000.0001) %MON RAS_max                      =   4.0000000000000E+04
(PID.TID 0000.0001) %MON RAS_min                      =   4.0000000000000E+04
(PID.TID 0000.0001) %MON RAS_mean                     =   4.0000000000000E+04
(PID.TID 0000.0001) %MON RAS_sd                       =   0.0000000000000E+00
(PID.TID 0000.0001) %MON RAZ_max                      =   4.0000000000000E+04
(PID.TID 0000.0001) %MON RAZ_min                      =   4.0000000000000E+04
(PID.TID 0000.0001) %MON RAZ_mean                     =   4.0000000000000E+04
(PID.TID 0000.0001) %MON RAZ_sd                       =   0.0000000000000E+00
(PID.TID 0000.0001) %MON AngleCS_max                  =   1.0000000000000E+00
(PID.TID 0000.0001) %MON AngleCS_min                  =   1.0000000000000E+00
(PID.TID 0000.0001) %MON AngleCS_mean                 =   1.0000000000000E+00
(PID.TID 0000.0001) %MON AngleCS_sd                   =   0.0000000000000E+00
(PID.TID 0000.0001) %MON AngleSN_max                  =   0.0000000000000E+00
(PID.TID 0000.0001) %MON AngleSN_min                  =   0.0000000000000E+00
(PID.TID 0000.0001) %MON AngleSN_mean                 =   0.0000000000000E+00
(PID.TID 0000.0001) %MON AngleSN_sd                   =   0.0000000000000E+00
(PID.TID 0000.0001) 
(PID.TID 0000.0001) // =======================================================
(PID.TID 0000.0001) // Calendar configuration >>> START <<<
(PID.TID 0000.0001) // =======================================================
(PID.TID 0000.0001) 
(PID.TID 0000.0001) modelstart = /* Start time of the model integration [s] */
(PID.TID 0000.0001)                 0.000000000000000E+00
(PID.TID 0000.0001)     ;
(PID.TID 0000.0001) modelend  = /* End time of the model integration [s] */
(PID.TID 0000.0001)                 2.000000000000000E+02
(PID.TID 0000.0001)     ;
(PID.TID 0000.0001) modelStep = /* Time interval for a model forward step [s] */
(PID.TID 0000.0001)                 2.500000000000000E+01
(PID.TID 0000.0001)     ;
(PID.TID 0000.0001) usingGregorianCalendar= /* Calendar Type: Gregorian Calendar */
(PID.TID 0000.0001)                   T
(PID.TID 0000.0001)     ;
(PID.TID 0000.0001) usingJulianCalendar = /* Calendar Type: Julian Calendar */
(PID.TID 0000.0001)                   F
(PID.TID 0000.0001)     ;
(PID.TID 0000.0001) usingNoLeapYearCal  = /* Calendar Type: without Leap Year */
(PID.TID 0000.0001)                   F
(PID.TID 0000.0001)     ;
(PID.TID 0000.0001) usingModelCalendar  = /* Calendar Type: Model Calendar */
(PID.TID 0000.0001)                   F
(PID.TID 0000.0001)     ;
(PID.TID 0000.0001) modelStartDate YYYYMMDD = /* Model start date YYYY-MM-DD */
(PID.TID 0000.0001)                20020101
(PID.TID 0000.0001)     ;
(PID.TID 0000.0001)   modelStartDate HHMMSS = /* Model start date HH-MM-SS  */
(PID.TID 0000.0001)                       0
(PID.TID 0000.0001)     ;
(PID.TID 0000.0001) modelEndDate   YYYYMMDD = /* Model end date YYYY-MM-DD */
(PID.TID 0000.0001)                20020101
(PID.TID 0000.0001)     ;
(PID.TID 0000.0001)   modelEndDate   HHMMSS = /* Model end date HH-MM-SS  */
(PID.TID 0000.0001)                     320
(PID.TID 0000.0001)     ;
(PID.TID 0000.0001) intyears = /* Number of calendar years affected by the integration */
(PID.TID 0000.0001)                       1
(PID.TID 0000.0001)     ;
(PID.TID 0000.0001) intmonths= /* Number of calendar months affected by the integration */
(PID.TID 0000.0001)                       1
(PID.TID 0000.0001)     ;
(PID.TID 0000.0001) intdays = /* Number of calendar days affected by the integration */
(PID.TID 0000.0001)                       1
(PID.TID 0000.0001)     ;
(PID.TID 0000.0001) modelIter0 = /* Base timestep number  */
(PID.TID 0000.0001)                       0
(PID.TID 0000.0001)     ;
(PID.TID 0000.0001) modelIterEnd = /* Final timestep number  */
(PID.TID 0000.0001)                       8
(PID.TID 0000.0001)     ;
(PID.TID 0000.0001) modelIntSteps= /* Number of model timesteps  */
(PID.TID 0000.0001)                       8
(PID.TID 0000.0001)     ;
(PID.TID 0000.0001) 
(PID.TID 0000.0001) // =======================================================
(PID.TID 0000.0001) // Calendar configuration  >>> END <<<
(PID.TID 0000.0001) // =======================================================
(PID.TID 0000.0001) 
(PID.TID 0000.0001) GAD_INIT_FIXED: GAD_OlMinSize=  2  0  1
(PID.TID 0000.0001) 
(PID.TID 0000.0001) // ===================================
(PID.TID 0000.0001) // GAD parameters :
(PID.TID 0000.0001) // ===================================
(PID.TID 0000.0001) tempAdvScheme =   /* Temp. Horiz.Advection scheme selector */
(PID.TID 0000.0001)                      33
(PID.TID 0000.0001)     ;
(PID.TID 0000.0001) tempVertAdvScheme =   /* Temp. Vert. Advection scheme selector */
(PID.TID 0000.0001)                      33
(PID.TID 0000.0001)     ;
(PID.TID 0000.0001) tempMultiDimAdvec =   /* use Muti-Dim Advec method for Temp */
(PID.TID 0000.0001)                   T
(PID.TID 0000.0001)     ;
(PID.TID 0000.0001) tempSOM_Advection = /* use 2nd Order Moment Advection for Temp */
(PID.TID 0000.0001)                   F
(PID.TID 0000.0001)     ;
(PID.TID 0000.0001) AdamsBashforthGt = /* apply Adams-Bashforth extrapolation on Gt */
(PID.TID 0000.0001)                   F
(PID.TID 0000.0001)     ;
(PID.TID 0000.0001) AdamsBashforth_T = /* apply Adams-Bashforth extrapolation on Temp */
(PID.TID 0000.0001)                   F
(PID.TID 0000.0001)     ;
(PID.TID 0000.0001) saltAdvScheme =   /* Salt. Horiz.advection scheme selector */
(PID.TID 0000.0001)                      33
(PID.TID 0000.0001)     ;
(PID.TID 0000.0001) saltVertAdvScheme =   /* Salt. Vert. Advection scheme selector */
(PID.TID 0000.0001)                      33
(PID.TID 0000.0001)     ;
(PID.TID 0000.0001) saltMultiDimAdvec =   /* use Muti-Dim Advec method for Salt */
(PID.TID 0000.0001)                   T
(PID.TID 0000.0001)     ;
(PID.TID 0000.0001) saltSOM_Advection = /* use 2nd Order Moment Advection for Salt */
(PID.TID 0000.0001)                   F
(PID.TID 0000.0001)     ;
(PID.TID 0000.0001) AdamsBashforthGs = /* apply Adams-Bashforth extrapolation on Gs */
(PID.TID 0000.0001)                   F
(PID.TID 0000.0001)     ;
(PID.TID 0000.0001) AdamsBashforth_S = /* apply Adams-Bashforth extrapolation on Salt */
(PID.TID 0000.0001)                   F
(PID.TID 0000.0001)     ;
(PID.TID 0000.0001) // ===================================
(PID.TID 0000.0001) 
(PID.TID 0000.0001) // =======================================================
(PID.TID 0000.0001) // External forcing (EXF) configuration >>> START <<<
(PID.TID 0000.0001) // =======================================================
(PID.TID 0000.0001) 
(PID.TID 0000.0001)  EXF general parameters:
(PID.TID 0000.0001) 
(PID.TID 0000.0001) exf_iprec = /* exf file precision */
(PID.TID 0000.0001)                      64
(PID.TID 0000.0001)     ;
(PID.TID 0000.0001) useExfYearlyFields = /* add extension _YEAR to input file names */
(PID.TID 0000.0001)                   F
(PID.TID 0000.0001)     ;
(PID.TID 0000.0001) twoDigitYear = /* use 2-digit year extension */
(PID.TID 0000.0001)                   F
(PID.TID 0000.0001)     ;
(PID.TID 0000.0001) useExfCheckRange = /* check for fields range */
(PID.TID 0000.0001)                   T
(PID.TID 0000.0001)     ;
(PID.TID 0000.0001) diags_opOceWeighted = /* weight flux diags by open-ocean fraction */
(PID.TID 0000.0001)                   F
(PID.TID 0000.0001)     ;
(PID.TID 0000.0001) exf_debugLev = /* select EXF-debug printing level */
(PID.TID 0000.0001)                       1
(PID.TID 0000.0001)     ;
(PID.TID 0000.0001) exf_monFreq  = /* EXF monitor frequency [ s ] */
(PID.TID 0000.0001)                 1.000000000000000E+00
(PID.TID 0000.0001)     ;
(PID.TID 0000.0001) exf_adjMonSelect = /* select group of exf AD-variables to monitor */
(PID.TID 0000.0001)                       1
(PID.TID 0000.0001)     ;
(PID.TID 0000.0001) repeatPeriod = /* period for cycling forcing dataset [ s ] */
(PID.TID 0000.0001)                 3.162240000000000E+07
(PID.TID 0000.0001)     ;
(PID.TID 0000.0001) climTempFreeze= /* Minimum climatological temperature [deg.C] */
(PID.TID 0000.0001)                -1.900000000000000E+00
(PID.TID 0000.0001)     ;
(PID.TID 0000.0001) windStressMax = /* Maximum absolute windstress [ Pa ] */
(PID.TID 0000.0001)                 2.000000000000000E+00
(PID.TID 0000.0001)     ;
(PID.TID 0000.0001) stressIsOnCgrid = /* set u,v_stress on Arakawa C-grid */
(PID.TID 0000.0001)                   F
(PID.TID 0000.0001)     ;
(PID.TID 0000.0001) rotateStressOnAgrid = /* rotate u,v_stress on Arakawa A-grid */
(PID.TID 0000.0001)                   F
(PID.TID 0000.0001)     ;
(PID.TID 0000.0001) cen2kel = /* conversion of deg. Centigrade to Kelvin [K] */
(PID.TID 0000.0001)                 2.731500000000000E+02
(PID.TID 0000.0001)     ;
(PID.TID 0000.0001) gravity_mks= /* gravitational acceleration [m/s^2] */
(PID.TID 0000.0001)                 9.810000000000000E+00
(PID.TID 0000.0001)     ;
(PID.TID 0000.0001) atmrho =  /* mean atmospheric density [kg/m^3] */
(PID.TID 0000.0001)                 1.200000000000000E+00
(PID.TID 0000.0001)     ;
(PID.TID 0000.0001) atmcp =  /* mean atmospheric specific heat [J/kg/K] */
(PID.TID 0000.0001)                 1.005000000000000E+03
(PID.TID 0000.0001)     ;
(PID.TID 0000.0001) flamb =  /* latent heat of evaporation [J/kg] */
(PID.TID 0000.0001)                 2.500000000000000E+06
(PID.TID 0000.0001)     ;
(PID.TID 0000.0001) flami =  /* latent heat of pure-ice melting [J/kg] */
(PID.TID 0000.0001)                 3.340000000000000E+05
(PID.TID 0000.0001)     ;
(PID.TID 0000.0001) cvapor_fac = /* const. for Saturation calculation [?] */
(PID.TID 0000.0001)                 6.403800000000000E+05
(PID.TID 0000.0001)     ;
(PID.TID 0000.0001) cvapor_exp = /* const. for Saturation calculation [?] */
(PID.TID 0000.0001)                 5.107400000000000E+03
(PID.TID 0000.0001)     ;
(PID.TID 0000.0001) cvapor_fac_ice= /* const. for Saturation calculation [?] */
(PID.TID 0000.0001)                 1.163780000000000E+07
(PID.TID 0000.0001)     ;
(PID.TID 0000.0001) cvapor_exp_ice= /* const. for Saturation calculation [?] */
(PID.TID 0000.0001)                 5.897800000000000E+03
(PID.TID 0000.0001)     ;
(PID.TID 0000.0001) humid_fac = /* humidity coef. in virtual temp. [(kg/kg)^-1] */
(PID.TID 0000.0001)                 6.060000000000000E-01
(PID.TID 0000.0001)     ;
(PID.TID 0000.0001) gamma_blk = /* adiabatic lapse rate [?] */
(PID.TID 0000.0001)                 1.000000000000000E-02
(PID.TID 0000.0001)     ;
(PID.TID 0000.0001) saltsat = /* reduction of Qsat over salty water [-] */
(PID.TID 0000.0001)                 9.800000000000000E-01
(PID.TID 0000.0001)     ;
(PID.TID 0000.0001) noNegativeEvap = /* prevent negative Evaporation */
(PID.TID 0000.0001)                   F
(PID.TID 0000.0001)     ;
(PID.TID 0000.0001) sstExtrapol = /* extrapolation coeff from lev. 1 & 2 to surf [-] */
(PID.TID 0000.0001)                 0.000000000000000E+00
(PID.TID 0000.0001)     ;
(PID.TID 0000.0001) cDrag_1 = /* coef used in drag calculation [m/s] */
(PID.TID 0000.0001)                 2.700000000000000E-03
(PID.TID 0000.0001)     ;
(PID.TID 0000.0001) cDrag_2 = /* coef used in drag calculation [-] */
(PID.TID 0000.0001)                 1.420000000000000E-04
(PID.TID 0000.0001)     ;
(PID.TID 0000.0001) cDrag_3 = /* coef used in drag calculation [s/m] */
(PID.TID 0000.0001)                 7.640000000000000E-05
(PID.TID 0000.0001)     ;
(PID.TID 0000.0001) cDrag_8 = /* coef used in drag calculation [(s/m)^6] */
(PID.TID 0000.0001)                 1.234567000000000E+05
(PID.TID 0000.0001)     ;
(PID.TID 0000.0001) cDragMax = /* maximum drag (Large and Yeager, 2009) [-] */
(PID.TID 0000.0001)                 1.234567000000000E+05
(PID.TID 0000.0001)     ;
(PID.TID 0000.0001) umax = /* at maximum wind (Large and Yeager, 2009) [m/s] */
(PID.TID 0000.0001)                 1.234567000000000E+05
(PID.TID 0000.0001)     ;
(PID.TID 0000.0001) cStanton_1 = /* coef used in Stanton number calculation [-] */
(PID.TID 0000.0001)                 3.270000000000000E-02
(PID.TID 0000.0001)     ;
(PID.TID 0000.0001) cStanton_2 = /* coef used in Stanton number calculation [-] */
(PID.TID 0000.0001)                 1.800000000000000E-02
(PID.TID 0000.0001)     ;
(PID.TID 0000.0001) cDalton = /* Dalton number [-] */
(PID.TID 0000.0001)                 3.460000000000000E-02
(PID.TID 0000.0001)     ;
(PID.TID 0000.0001) exf_scal_BulkCdn= /* Drag coefficient scaling factor [-] */
(PID.TID 0000.0001)                 1.000000000000000E+00
(PID.TID 0000.0001)     ;
(PID.TID 0000.0001) zolmin = /* minimum stability parameter [?] */
(PID.TID 0000.0001)                -1.000000000000000E+02
(PID.TID 0000.0001)     ;
(PID.TID 0000.0001) psim_fac = /* coef used in turbulent fluxes calculation [-] */
(PID.TID 0000.0001)                 5.000000000000000E+00
(PID.TID 0000.0001)     ;
(PID.TID 0000.0001) zref =  /* reference height [ m ] */
(PID.TID 0000.0001)                 1.000000000000000E+01
(PID.TID 0000.0001)     ;
(PID.TID 0000.0001) hu =  /* height of mean wind [ m ] */
(PID.TID 0000.0001)                 1.000000000000000E+01
(PID.TID 0000.0001)     ;
(PID.TID 0000.0001) ht =  /* height of mean temperature [ m ] */
(PID.TID 0000.0001)                 2.000000000000000E+00
(PID.TID 0000.0001)     ;
(PID.TID 0000.0001) hq =  /* height of mean spec.humidity [ m ] */
(PID.TID 0000.0001)                 2.000000000000000E+00
(PID.TID 0000.0001)     ;
(PID.TID 0000.0001) uMin = /* minimum wind speed [m/s] */
(PID.TID 0000.0001)                 5.000000000000000E-01
(PID.TID 0000.0001)     ;
(PID.TID 0000.0001) useStabilityFct_overIce= /* transfert Coeffs over sea-ice depend on stability */
(PID.TID 0000.0001)                   F
(PID.TID 0000.0001)     ;
(PID.TID 0000.0001) exf_iceCd = /* drag coefficient over sea-ice (fixed) [-] */
(PID.TID 0000.0001)                 1.630000000000000E-03
(PID.TID 0000.0001)     ;
(PID.TID 0000.0001) exf_iceCe = /* transfert coeff. over sea-ice, for Evap (fixed) [-] */
(PID.TID 0000.0001)                 1.630000000000000E-03
(PID.TID 0000.0001)     ;
(PID.TID 0000.0001) exf_iceCh = /* transfert coeff. over sea-ice, Sens.Heat.(fixed)[-] */
(PID.TID 0000.0001)                 1.630000000000000E-03
(PID.TID 0000.0001)     ;
(PID.TID 0000.0001) exf_albedo =  /* Sea-water albedo [-] */
(PID.TID 0000.0001)                 1.000000000000000E-01
(PID.TID 0000.0001)     ;
(PID.TID 0000.0001) useExfZenAlbedo = /* Sea-water albedo varies with zenith angle */
(PID.TID 0000.0001)                   F
(PID.TID 0000.0001)     ;
(PID.TID 0000.0001) select_ZenAlbedo = /* Sea-water albedo computation method */
(PID.TID 0000.0001)                       0
(PID.TID 0000.0001)     ;
(PID.TID 0000.0001) useExfZenIncoming = /* compute incoming solar radiation */
(PID.TID 0000.0001)                   F
(PID.TID 0000.0001)     ;
(PID.TID 0000.0001) ocean_emissivity = /* longwave ocean-surface emissivity [-] */
(PID.TID 0000.0001)                 9.700176366843034E-01
(PID.TID 0000.0001)     ;
(PID.TID 0000.0001) ice_emissivity = /* longwave seaice emissivity [-] */
(PID.TID 0000.0001)                 9.500000000000000E-01
(PID.TID 0000.0001)     ;
(PID.TID 0000.0001) snow_emissivity = /* longwave snow  emissivity [-] */
(PID.TID 0000.0001)                 9.500000000000000E-01
(PID.TID 0000.0001)     ;
(PID.TID 0000.0001) 
(PID.TID 0000.0001)  EXF main CPP flags:
(PID.TID 0000.0001) 
(PID.TID 0000.0001) // USE_EXF_INTERPOLATION:          NOT defined
(PID.TID 0000.0001) // ALLOW_ATM_TEMP:                     defined
(PID.TID 0000.0001) // ALLOW_ATM_WIND (useAtmWind):        defined
(PID.TID 0000.0001) // ALLOW_DOWNWARD_RADIATION:           defined
(PID.TID 0000.0001) // ALLOW_BULKFORMULAE:                 defined
(PID.TID 0000.0001) // ALLOW_READ_TURBFLUXES:          NOT defined
(PID.TID 0000.0001) // EXF_READ_EVAP:                  NOT defined
(PID.TID 0000.0001) // ALLOW_RUNOFF:                       defined
(PID.TID 0000.0001) // ALLOW_RUNOFTEMP:                NOT defined
(PID.TID 0000.0001) // ALLOW_SALTFLX:                      defined
(PID.TID 0000.0001) 
(PID.TID 0000.0001) // =======================================================
(PID.TID 0000.0001) // External forcing (EXF) climatology configuration :
(PID.TID 0000.0001) // =======================================================
(PID.TID 0000.0001) 
(PID.TID 0000.0001) // ALLOW_CLIMSST_RELAXATION:           defined
(PID.TID 0000.0001)    climsst relaxation is NOT used
(PID.TID 0000.0001) 
(PID.TID 0000.0001) // ALLOW_CLIMSSS_RELAXATION:           defined
(PID.TID 0000.0001)    climsss relaxation is NOT used
(PID.TID 0000.0001) 
(PID.TID 0000.0001) // =======================================================
(PID.TID 0000.0001) // External forcing (EXF) configuration  >>> END <<<
(PID.TID 0000.0001) // =======================================================
(PID.TID 0000.0001) 
(PID.TID 0000.0001) ------------------------------------------------------------
(PID.TID 0000.0001) DIAGNOSTICS_SET_LEVELS: done
(PID.TID 0000.0001)  Total Nb of available Diagnostics: ndiagt=   239
(PID.TID 0000.0001)  write list of available Diagnostics to file: available_diagnostics.log
(PID.TID 0000.0001) SETDIAG: Allocate  1 x  1 Levels for Diagnostic #    23 ETAN
(PID.TID 0000.0001) SETDIAG: Allocate  1 x  1 Levels for Diagnostic #    25 DETADT2
(PID.TID 0000.0001) SETDIAG: Allocate  1 x  1 Levels for Diagnostic #    78 PHIBOT
(PID.TID 0000.0001) SETDIAG: Allocate  1 x  1 Levels for Diagnostic #    83 MXLDEPTH
(PID.TID 0000.0001) SETDIAG: Allocate  1 x  1 Levels for Diagnostic #    92 oceQnet
(PID.TID 0000.0001) SETDIAG: Allocate  1 x  1 Levels for Diagnostic #    90 oceFWflx
(PID.TID 0000.0001) SETDIAG: Allocate  1 x  1 Levels for Diagnostic #    86 oceTAUX
(PID.TID 0000.0001) SETDIAG: Allocate  1 x  1 Levels for Diagnostic #    87 oceTAUY
(PID.TID 0000.0001) SETDIAG: Allocate  1 x  1 Levels for Diagnostic #    24 ETANSQ
(PID.TID 0000.0001) SETDIAG: Allocate 15 x  1 Levels for Diagnostic #    26 THETA
(PID.TID 0000.0001) SETDIAG: Allocate 15 x  1 Levels for Diagnostic #    27 SALT
(PID.TID 0000.0001) SETDIAG: Allocate 15 x  1 Levels for Diagnostic #    31 tAddMass
(PID.TID 0000.0001) SETDIAG: Allocate 15 x  1 Levels for Diagnostic #    32 sAddMass
(PID.TID 0000.0001) SETDIAG: Allocate 15 x  1 Levels for Diagnostic #    50 UVELMASS
(PID.TID 0000.0001) SETDIAG: Allocate 15 x  1 Levels for Diagnostic #    51 VVELMASS
(PID.TID 0000.0001) SETDIAG: Allocate 15 x  1 Levels for Diagnostic #    52 WVELMASS
(PID.TID 0000.0001) SETDIAG: Allocate  1 x  1 Levels for Diagnostic #    23 ETAN
(PID.TID 0000.0001) SETDIAG: Allocate  1 x  1 Levels for Diagnostic #    78 PHIBOT
(PID.TID 0000.0001) - NOTE - SETDIAG:  Diagnostic  #    90 oceFWflx is already set
(PID.TID 0000.0001) SETDIAG: Allocate  1 x  1 Levels for Diagnostic #    99 TFLUX
(PID.TID 0000.0001) SETDIAG: Allocate  1 x  1 Levels for Diagnostic #   100 SFLUX
(PID.TID 0000.0001) SETDIAG: Allocate  1 x  1 Levels for Diagnostic #    93 oceQsw
(PID.TID 0000.0001) SETDIAG: Allocate 15 x  1 Levels for Diagnostic #   228 icefrntW
(PID.TID 0000.0001) SETDIAG: Allocate 15 x  1 Levels for Diagnostic #   229 icefrntT
(PID.TID 0000.0001) SETDIAG: Allocate 15 x  1 Levels for Diagnostic #   230 icefrntS
(PID.TID 0000.0001) SETDIAG: Allocate 15 x  1 Levels for Diagnostic #   231 icefrntR
(PID.TID 0000.0001) SETDIAG: Allocate 15 x  1 Levels for Diagnostic #   232 icefrntM
(PID.TID 0000.0001) SETDIAG: Allocate 15 x  1 Levels for Diagnostic #   233 icefrntA
(PID.TID 0000.0001) SETDIAG: Allocate 15 x  1 Levels for Diagnostic #    26 THETA
(PID.TID 0000.0001) SETDIAG: Allocate 15 x  1 Levels for Diagnostic #    27 SALT
(PID.TID 0000.0001) SETDIAG: Allocate 15 x  1 Levels for Diagnostic #    31 tAddMass
(PID.TID 0000.0001) SETDIAG: Allocate 15 x  1 Levels for Diagnostic #    32 sAddMass
(PID.TID 0000.0001) - NOTE - SETDIAG:  Diagnostic  #    50 UVELMASS is already set
(PID.TID 0000.0001) - NOTE - SETDIAG:  Diagnostic  #    51 VVELMASS is already set
(PID.TID 0000.0001) SETDIAG: Allocate 15 x  1 Levels for Diagnostic #   121 ADVx_TH
(PID.TID 0000.0001) SETDIAG: Allocate 15 x  1 Levels for Diagnostic #   122 ADVy_TH
(PID.TID 0000.0001) SETDIAG: Allocate 15 x  1 Levels for Diagnostic #   124 DFxE_TH
(PID.TID 0000.0001) SETDIAG: Allocate 15 x  1 Levels for Diagnostic #   125 DFyE_TH
(PID.TID 0000.0001) SETDIAG: Allocate 15 x  1 Levels for Diagnostic #   128 ADVx_SLT
(PID.TID 0000.0001) SETDIAG: Allocate 15 x  1 Levels for Diagnostic #   129 ADVy_SLT
(PID.TID 0000.0001) SETDIAG: Allocate 15 x  1 Levels for Diagnostic #   131 DFxE_SLT
(PID.TID 0000.0001) SETDIAG: Allocate 15 x  1 Levels for Diagnostic #   132 DFyE_SLT
(PID.TID 0000.0001) SETDIAG: Allocate 15 x  1 Levels for Diagnostic #    57 WTHMASS
(PID.TID 0000.0001) SETDIAG: Allocate 15 x  1 Levels for Diagnostic #    60 WSLTMASS
(PID.TID 0000.0001) SETDIAG: Allocate  1 x  1 Levels for Diagnostic #    91 oceSflux
(PID.TID 0000.0001) - NOTE - SETDIAG:  Diagnostic  #    92 oceQnet  is already set
(PID.TID 0000.0001) - NOTE - SETDIAG:  Diagnostic  #    52 WVELMASS is already set
(PID.TID 0000.0001) SETDIAG: Allocate 15 x  1 Levels for Diagnostic #   120 ADVr_TH
(PID.TID 0000.0001) SETDIAG: Allocate 15 x  1 Levels for Diagnostic #   123 DFrE_TH
(PID.TID 0000.0001) SETDIAG: Allocate 15 x  1 Levels for Diagnostic #   127 ADVr_SLT
(PID.TID 0000.0001) SETDIAG: Allocate 15 x  1 Levels for Diagnostic #   130 DFrE_SLT
(PID.TID 0000.0001) - NOTE - SETDIAG:  Diagnostic  #    57 WTHMASS  is already set
(PID.TID 0000.0001) - NOTE - SETDIAG:  Diagnostic  #    60 WSLTMASS is already set
(PID.TID 0000.0001) SETDIAG: Allocate 15 x  1 Levels for Diagnostic #    28 addMass
(PID.TID 0000.0001) SETDIAG: Allocate 15 x  1 Levels for Diagnostic #   238 IPmasspl
(PID.TID 0000.0001) SETDIAG: Allocate 15 x  1 Levels for Diagnostic #   239 IPmassbg
(PID.TID 0000.0001) SETDIAG: Allocate 15 x  1 Levels for Diagnostic #   234 IP_gTbg
(PID.TID 0000.0001) SETDIAG: Allocate 15 x  1 Levels for Diagnostic #   235 IP_gSbg
(PID.TID 0000.0001) SETDIAG: Allocate 15 x  1 Levels for Diagnostic #    29 gTaddMas
(PID.TID 0000.0001) SETDIAG: Allocate 15 x  1 Levels for Diagnostic #    30 gSaddMas
(PID.TID 0000.0001)   space allocated for all diagnostics:     585 levels
(PID.TID 0000.0001)   set mate pointer for diag #    86  oceTAUX  , Parms: UU      U1 , mate:    87
(PID.TID 0000.0001)   set mate pointer for diag #    87  oceTAUY  , Parms: VV      U1 , mate:    86
(PID.TID 0000.0001)   set mate pointer for diag #    50  UVELMASS , Parms: UUr     MR , mate:    51
(PID.TID 0000.0001)   set mate pointer for diag #    51  VVELMASS , Parms: VVr     MR , mate:    50
(PID.TID 0000.0001)   set mate pointer for diag #    50  UVELMASS , Parms: UUr     MR , mate:    51
(PID.TID 0000.0001)   set mate pointer for diag #    51  VVELMASS , Parms: VVr     MR , mate:    50
(PID.TID 0000.0001)   set mate pointer for diag #   121  ADVx_TH  , Parms: UU      MR , mate:   122
(PID.TID 0000.0001)   set mate pointer for diag #   122  ADVy_TH  , Parms: VV      MR , mate:   121
(PID.TID 0000.0001)   set mate pointer for diag #   124  DFxE_TH  , Parms: UU      MR , mate:   125
(PID.TID 0000.0001)   set mate pointer for diag #   125  DFyE_TH  , Parms: VV      MR , mate:   124
(PID.TID 0000.0001)   set mate pointer for diag #   128  ADVx_SLT , Parms: UU      MR , mate:   129
(PID.TID 0000.0001)   set mate pointer for diag #   129  ADVy_SLT , Parms: VV      MR , mate:   128
(PID.TID 0000.0001)   set mate pointer for diag #   131  DFxE_SLT , Parms: UU      MR , mate:   132
(PID.TID 0000.0001)   set mate pointer for diag #   132  DFyE_SLT , Parms: VV      MR , mate:   131
(PID.TID 0000.0001) DIAGNOSTICS_SET_POINTERS: Set levels for Outp.Stream: diags/state_2d_set1
(PID.TID 0000.0001)  Levels:       1.
(PID.TID 0000.0001) DIAGNOSTICS_SET_POINTERS: Set levels for Outp.Stream: diags/state_3d_set1
(PID.TID 0000.0001)  Levels:       1.   2.   3.   4.   5.   6.   7.   8.   9.  10.  11.  12.  13.  14.  15.
(PID.TID 0000.0001) DIAGNOSTICS_SET_POINTERS: Set levels for Outp.Stream: diags/trsp_3d_set1
(PID.TID 0000.0001)  Levels:       1.   2.   3.   4.   5.   6.   7.   8.   9.  10.  11.  12.  13.  14.  15.
(PID.TID 0000.0001) DIAGNOSTICS_SET_POINTERS: Set levels for Outp.Stream: diags/budg2d_snap_set1
(PID.TID 0000.0001)  Levels:       1.
(PID.TID 0000.0001) DIAGNOSTICS_SET_POINTERS: Set levels for Outp.Stream: diags/budg2d_zflux_set1
(PID.TID 0000.0001)  Levels:       1.
(PID.TID 0000.0001) DIAGNOSTICS_SET_POINTERS: Set levels for Outp.Stream: diags/icefrnt_3d_set1
(PID.TID 0000.0001)  Levels:       1.   2.   3.   4.   5.   6.   7.   8.   9.  10.  11.  12.  13.  14.  15.
(PID.TID 0000.0001) DIAGNOSTICS_SET_POINTERS: Set levels for Outp.Stream: diags/budg3d_snap_set3
(PID.TID 0000.0001)  Levels:       1.   2.   3.   4.   5.   6.   7.   8.   9.  10.  11.  12.  13.  14.  15.
(PID.TID 0000.0001) DIAGNOSTICS_SET_POINTERS: Set levels for Outp.Stream: diags/budg3d_hflux_set2
(PID.TID 0000.0001)  Levels:       1.   2.   3.   4.   5.   6.   7.   8.   9.  10.  11.  12.  13.  14.  15.
(PID.TID 0000.0001) DIAGNOSTICS_SET_POINTERS: Set levels for Outp.Stream: diags/budg2d_zflux_set2
(PID.TID 0000.0001)  Levels:       1.
(PID.TID 0000.0001) DIAGNOSTICS_SET_POINTERS: Set levels for Outp.Stream: diags/budg3d_zflux_set2
(PID.TID 0000.0001)  Levels:       1.   2.   3.   4.   5.   6.   7.   8.   9.  10.  11.  12.  13.  14.  15.
(PID.TID 0000.0001) DIAGNOSTICS_SET_POINTERS: Set levels for Outp.Stream: diags/budg3d_hflux_set3
(PID.TID 0000.0001)  Levels:       1.   2.   3.   4.   5.   6.   7.   8.   9.  10.  11.  12.  13.  14.  15.
(PID.TID 0000.0001) DIAGNOSTICS_SET_POINTERS: Set levels for Outp.Stream: diags/budg3d_tend
(PID.TID 0000.0001)  Levels:       1.   2.   3.   4.   5.   6.   7.   8.   9.  10.  11.  12.  13.  14.  15.
(PID.TID 0000.0001) DIAGNOSTICS_SET_POINTERS: done
(PID.TID 0000.0001) ------------------------------------------------------------
(PID.TID 0000.0001) DIAGSTATS_SET_REGIONS: define no region
(PID.TID 0000.0001) ------------------------------------------------------------
(PID.TID 0000.0001)   space allocated for all stats-diags:       0 levels
(PID.TID 0000.0001) DIAGSTATS_SET_POINTERS: done
(PID.TID 0000.0001) ------------------------------------------------------------
(PID.TID 0000.0001) %MON fCori_max                    =   0.0000000000000E+00
(PID.TID 0000.0001) %MON fCori_min                    =   0.0000000000000E+00
(PID.TID 0000.0001) %MON fCori_mean                   =   0.0000000000000E+00
(PID.TID 0000.0001) %MON fCori_sd                     =   0.0000000000000E+00
(PID.TID 0000.0001) %MON fCoriG_max                   =   0.0000000000000E+00
(PID.TID 0000.0001) %MON fCoriG_min                   =   0.0000000000000E+00
(PID.TID 0000.0001) %MON fCoriG_mean                  =   0.0000000000000E+00
(PID.TID 0000.0001) %MON fCoriG_sd                    =   0.0000000000000E+00
(PID.TID 0000.0001) %MON fCoriCos_max                 =   0.0000000000000E+00
(PID.TID 0000.0001) %MON fCoriCos_min                 =   0.0000000000000E+00
(PID.TID 0000.0001) %MON fCoriCos_mean                =   0.0000000000000E+00
(PID.TID 0000.0001) %MON fCoriCos_sd                  =   0.0000000000000E+00
(PID.TID 0000.0001) INI_CG2D: CG2D normalisation factor =  6.6666666666666671E-03
(PID.TID 0000.0001) 
(PID.TID 0000.0001) // =======================================================
(PID.TID 0000.0001) // Model configuration
(PID.TID 0000.0001) // =======================================================
(PID.TID 0000.0001) //
(PID.TID 0000.0001) // "Physical" paramters ( PARM01 in namelist )
(PID.TID 0000.0001) //
(PID.TID 0000.0001) buoyancyRelation = /* Type of relation to get Buoyancy */
(PID.TID 0000.0001)               'OCEANIC'
(PID.TID 0000.0001)     ;
(PID.TID 0000.0001) fluidIsAir   =  /* fluid major constituent is Air */
(PID.TID 0000.0001)                   F
(PID.TID 0000.0001)     ;
(PID.TID 0000.0001) fluidIsWater =  /* fluid major constituent is Water */
(PID.TID 0000.0001)                   T
(PID.TID 0000.0001)     ;
(PID.TID 0000.0001) usingPCoords =  /* use p (or p*) vertical coordinate */
(PID.TID 0000.0001)                   F
(PID.TID 0000.0001)     ;
(PID.TID 0000.0001) usingZCoords =  /* use z (or z*) vertical coordinate */
(PID.TID 0000.0001)                   T
(PID.TID 0000.0001)     ;
(PID.TID 0000.0001) tRef =   /* Reference temperature profile ( oC or K ) */
(PID.TID 0000.0001)    15 @  0.000000000000000E+00              /* K =  1: 15 */
(PID.TID 0000.0001)     ;
(PID.TID 0000.0001) sRef =   /* Reference salinity profile ( g/kg ) */
(PID.TID 0000.0001)    15 @  3.400000000000000E+01              /* K =  1: 15 */
(PID.TID 0000.0001)     ;
(PID.TID 0000.0001) useStrainTensionVisc= /* Use StrainTension Form of Viscous Operator */
(PID.TID 0000.0001)                   F
(PID.TID 0000.0001)     ;
(PID.TID 0000.0001) useVariableVisc = /* Use variable horizontal viscosity */
(PID.TID 0000.0001)                   T
(PID.TID 0000.0001)     ;
(PID.TID 0000.0001) useHarmonicVisc = /* Use harmonic horizontal viscosity */
(PID.TID 0000.0001)                   T
(PID.TID 0000.0001)     ;
(PID.TID 0000.0001) useBiharmonicVisc= /* Use biharmonic horiz.  viscosity */
(PID.TID 0000.0001)                   F
(PID.TID 0000.0001)     ;
(PID.TID 0000.0001) useSmag3D = /* Use isotropic 3-D Smagorinsky viscosity */
(PID.TID 0000.0001)                   F
(PID.TID 0000.0001)     ;
(PID.TID 0000.0001) viscAh  =   /* Lateral harmonic viscosity ( m^2/s ) */
(PID.TID 0000.0001)                 0.000000000000000E+00
(PID.TID 0000.0001)     ;
(PID.TID 0000.0001) viscAhMax = /* Maximum lateral harmonic viscosity ( m^2/s ) */
(PID.TID 0000.0001)                 1.000000000000000E+21
(PID.TID 0000.0001)     ;
(PID.TID 0000.0001) viscAhGrid = /* Grid dependent lateral harmonic viscosity ( non-dim. ) */
(PID.TID 0000.0001)                 0.000000000000000E+00
(PID.TID 0000.0001)     ;
(PID.TID 0000.0001) useFullLeith = /* Use Full Form of Leith Viscosity on/off flag*/
(PID.TID 0000.0001)                   F
(PID.TID 0000.0001)     ;
(PID.TID 0000.0001) useAreaViscLength = /* Use area for visc length instead of geom. mean*/
(PID.TID 0000.0001)                   F
(PID.TID 0000.0001)     ;
(PID.TID 0000.0001) viscC2leith = /* Leith harmonic visc. factor (on grad(vort),non-dim.) */
(PID.TID 0000.0001)                 0.000000000000000E+00
(PID.TID 0000.0001)     ;
(PID.TID 0000.0001) viscC2leithD = /* Leith harmonic viscosity factor (on grad(div),non-dim.)*/
(PID.TID 0000.0001)                 0.000000000000000E+00
(PID.TID 0000.0001)     ;
(PID.TID 0000.0001) viscC2LeithQG = /* QG Leith harmonic viscosity factor (non-dim.)*/
(PID.TID 0000.0001)                 0.000000000000000E+00
(PID.TID 0000.0001)     ;
(PID.TID 0000.0001) viscC2smag = /* Smagorinsky harmonic viscosity factor (non-dim.) */
(PID.TID 0000.0001)                 2.200000000000000E+00
(PID.TID 0000.0001)     ;
(PID.TID 0000.0001) viscA4  =   /* Lateral biharmonic viscosity ( m^4/s ) */
(PID.TID 0000.0001)                 0.000000000000000E+00
(PID.TID 0000.0001)     ;
(PID.TID 0000.0001) viscA4Max = /* Maximum biharmonic viscosity ( m^2/s ) */
(PID.TID 0000.0001)                 1.000000000000000E+21
(PID.TID 0000.0001)     ;
(PID.TID 0000.0001) viscA4Grid = /* Grid dependent biharmonic viscosity ( non-dim. ) */
(PID.TID 0000.0001)                 0.000000000000000E+00
(PID.TID 0000.0001)     ;
(PID.TID 0000.0001) viscC4leith = /* Leith biharm viscosity factor (on grad(vort), non-dim.)*/
(PID.TID 0000.0001)                 0.000000000000000E+00
(PID.TID 0000.0001)     ;
(PID.TID 0000.0001) viscC4leithD = /* Leith biharm viscosity factor (on grad(div), non-dim.) */
(PID.TID 0000.0001)                 0.000000000000000E+00
(PID.TID 0000.0001)     ;
(PID.TID 0000.0001) viscC4Smag = /* Smagorinsky biharm viscosity factor (non-dim) */
(PID.TID 0000.0001)                 0.000000000000000E+00
(PID.TID 0000.0001)     ;
(PID.TID 0000.0001) no_slip_sides =  /* Viscous BCs: No-slip sides */
(PID.TID 0000.0001)                   F
(PID.TID 0000.0001)     ;
(PID.TID 0000.0001) sideDragFactor = /* side-drag scaling factor (non-dim) */
(PID.TID 0000.0001)                 2.000000000000000E+00
(PID.TID 0000.0001)     ;
(PID.TID 0000.0001) viscArNr = /* vertical profile of vertical viscosity ( m^2/s )*/
(PID.TID 0000.0001)    15 @  1.000000000000000E-05              /* K =  1: 15 */
(PID.TID 0000.0001)     ;
(PID.TID 0000.0001) no_slip_bottom =  /* Viscous BCs: No-slip bottom */
(PID.TID 0000.0001)                   T
(PID.TID 0000.0001)     ;
(PID.TID 0000.0001) bottomVisc_pCell = /* Partial-cell in bottom Visc. BC */
(PID.TID 0000.0001)                   F
(PID.TID 0000.0001)     ;
(PID.TID 0000.0001) bottomDragLinear = /* linear bottom-drag coefficient ( m/s ) */
(PID.TID 0000.0001)                 0.000000000000000E+00
(PID.TID 0000.0001)     ;
(PID.TID 0000.0001) bottomDragQuadratic = /* quadratic bottom-drag coefficient (-) */
(PID.TID 0000.0001)                 0.000000000000000E+00
(PID.TID 0000.0001)     ;
(PID.TID 0000.0001) selectBotDragQuadr = /* select quadratic bottom drag options */
(PID.TID 0000.0001)                      -1
(PID.TID 0000.0001)     ;
(PID.TID 0000.0001) diffKhT =   /* Laplacian diffusion of heat laterally ( m^2/s ) */
(PID.TID 0000.0001)                 2.000000000000000E+01
(PID.TID 0000.0001)     ;
(PID.TID 0000.0001) diffK4T =   /* Biharmonic diffusion of heat laterally ( m^4/s ) */
(PID.TID 0000.0001)                 0.000000000000000E+00
(PID.TID 0000.0001)     ;
(PID.TID 0000.0001) diffKhS =   /* Laplacian diffusion of salt laterally ( m^2/s ) */
(PID.TID 0000.0001)                 2.000000000000000E+01
(PID.TID 0000.0001)     ;
(PID.TID 0000.0001) diffK4S =   /* Biharmonic diffusion of salt laterally ( m^4/s ) */
(PID.TID 0000.0001)                 0.000000000000000E+00
(PID.TID 0000.0001)     ;
(PID.TID 0000.0001) diffKrNrT = /* vertical profile of vertical diffusion of Temp ( m^2/s )*/
(PID.TID 0000.0001)    15 @  1.000000000000000E-05              /* K =  1: 15 */
(PID.TID 0000.0001)     ;
(PID.TID 0000.0001) diffKrNrS = /* vertical profile of vertical diffusion of Salt ( m^2/s )*/
(PID.TID 0000.0001)    15 @  1.000000000000000E-05              /* K =  1: 15 */
(PID.TID 0000.0001)     ;
(PID.TID 0000.0001) diffKrBL79surf = /* Surface diffusion for Bryan and Lewis 79 ( m^2/s ) */
(PID.TID 0000.0001)                 0.000000000000000E+00
(PID.TID 0000.0001)     ;
(PID.TID 0000.0001) diffKrBL79deep = /* Deep diffusion for Bryan and Lewis 1979 ( m^2/s ) */
(PID.TID 0000.0001)                 0.000000000000000E+00
(PID.TID 0000.0001)     ;
(PID.TID 0000.0001) diffKrBL79scl = /* Depth scale for Bryan and Lewis 1979 ( m ) */
(PID.TID 0000.0001)                 2.000000000000000E+02
(PID.TID 0000.0001)     ;
(PID.TID 0000.0001) diffKrBL79Ho = /* Turning depth for Bryan and Lewis 1979 ( m ) */
(PID.TID 0000.0001)                -2.000000000000000E+03
(PID.TID 0000.0001)     ;
(PID.TID 0000.0001) ivdc_kappa = /* Implicit Vertical Diffusivity for Convection ( m^2/s) */
(PID.TID 0000.0001)                 0.000000000000000E+00
(PID.TID 0000.0001)     ;
(PID.TID 0000.0001) hMixCriteria=  /* Criteria for mixed-layer diagnostic */
(PID.TID 0000.0001)                -8.000000000000000E-01
(PID.TID 0000.0001)     ;
(PID.TID 0000.0001) dRhoSmall =  /* Parameter for mixed-layer diagnostic */
(PID.TID 0000.0001)                 1.000000000000000E-06
(PID.TID 0000.0001)     ;
(PID.TID 0000.0001) hMixSmooth=  /* Smoothing parameter for mixed-layer diagnostic */
(PID.TID 0000.0001)                 0.000000000000000E+00
(PID.TID 0000.0001)     ;
[...]
(PID.TID 0000.0001) %MON advcfl_wvel_max              =   1.7735160569956E-02
(PID.TID 0000.0001) %MON advcfl_W_hf_max              =   1.7735091407301E-02
(PID.TID 0000.0001) %MON pe_b_mean                    =   1.6163926116050E-09
(PID.TID 0000.0001) %MON ke_max                       =   3.6682138711419E-06
(PID.TID 0000.0001) %MON ke_mean                      =   9.1167651166891E-09
(PID.TID 0000.0001) %MON ke_vol                       =   9.7200121732149E+08
(PID.TID 0000.0001) // =======================================================
(PID.TID 0000.0001) // End MONITOR dynamic field statistics
(PID.TID 0000.0001) // =======================================================
(PID.TID 0000.0001) // =======================================================
(PID.TID 0000.0001) // Begin MONITOR EXF statistics
(PID.TID 0000.0001) // =======================================================
(PID.TID 0000.0001) %MON exf_tsnumber                 =                     7
(PID.TID 0000.0001) %MON exf_time_sec                 =   1.7500000000000E+02
(PID.TID 0000.0001) %MON exf_ustress_max              =   0.0000000000000E+00
(PID.TID 0000.0001) %MON exf_ustress_min              =   0.0000000000000E+00
(PID.TID 0000.0001) %MON exf_ustress_mean             =   0.0000000000000E+00
(PID.TID 0000.0001) %MON exf_ustress_sd               =   0.0000000000000E+00
(PID.TID 0000.0001) %MON exf_ustress_del2             =   0.0000000000000E+00
(PID.TID 0000.0001) %MON exf_vstress_max              =   0.0000000000000E+00
(PID.TID 0000.0001) %MON exf_vstress_min              =   0.0000000000000E+00
(PID.TID 0000.0001) %MON exf_vstress_mean             =   0.0000000000000E+00
(PID.TID 0000.0001) %MON exf_vstress_sd               =   0.0000000000000E+00
(PID.TID 0000.0001) %MON exf_vstress_del2             =   0.0000000000000E+00
(PID.TID 0000.0001) %MON exf_hflux_max                =   0.0000000000000E+00
(PID.TID 0000.0001) %MON exf_hflux_min                =   0.0000000000000E+00
(PID.TID 0000.0001) %MON exf_hflux_mean               =   0.0000000000000E+00
(PID.TID 0000.0001) %MON exf_hflux_sd                 =   0.0000000000000E+00
(PID.TID 0000.0001) %MON exf_hflux_del2               =   0.0000000000000E+00
(PID.TID 0000.0001) %MON exf_sflux_max                =   0.0000000000000E+00
(PID.TID 0000.0001) %MON exf_sflux_min                =   0.0000000000000E+00
(PID.TID 0000.0001) %MON exf_sflux_mean               =   0.0000000000000E+00
(PID.TID 0000.0001) %MON exf_sflux_sd                 =   0.0000000000000E+00
(PID.TID 0000.0001) %MON exf_sflux_del2               =   0.0000000000000E+00
(PID.TID 0000.0001) %MON exf_uwind_max                =   0.0000000000000E+00
(PID.TID 0000.0001) %MON exf_uwind_min                =   0.0000000000000E+00
(PID.TID 0000.0001) %MON exf_uwind_mean               =   0.0000000000000E+00
(PID.TID 0000.0001) %MON exf_uwind_sd                 =   0.0000000000000E+00
(PID.TID 0000.0001) %MON exf_uwind_del2               =   0.0000000000000E+00
(PID.TID 0000.0001) %MON exf_vwind_max                =   0.0000000000000E+00
(PID.TID 0000.0001) %MON exf_vwind_min                =   0.0000000000000E+00
(PID.TID 0000.0001) %MON exf_vwind_mean               =   0.0000000000000E+00
(PID.TID 0000.0001) %MON exf_vwind_sd                 =   0.0000000000000E+00
(PID.TID 0000.0001) %MON exf_vwind_del2               =   0.0000000000000E+00
(PID.TID 0000.0001) %MON exf_wspeed_max               =   0.0000000000000E+00
(PID.TID 0000.0001) %MON exf_wspeed_min               =   0.0000000000000E+00
(PID.TID 0000.0001) %MON exf_wspeed_mean              =   0.0000000000000E+00
(PID.TID 0000.0001) %MON exf_wspeed_sd                =   0.0000000000000E+00
(PID.TID 0000.0001) %MON exf_wspeed_del2              =   0.0000000000000E+00
(PID.TID 0000.0001) %MON exf_evap_max                 =   0.0000000000000E+00
(PID.TID 0000.0001) %MON exf_evap_min                 =   0.0000000000000E+00
(PID.TID 0000.0001) %MON exf_evap_mean                =   0.0000000000000E+00
(PID.TID 0000.0001) %MON exf_evap_sd                  =   0.0000000000000E+00
(PID.TID 0000.0001) %MON exf_evap_del2                =   0.0000000000000E+00
(PID.TID 0000.0001) // =======================================================
(PID.TID 0000.0001) // End MONITOR EXF statistics
(PID.TID 0000.0001) // =======================================================
 cg2d: Sum(rhs),rhsMax =  -1.14921904885854E+00  1.50650255355791E-02
(PID.TID 0000.0001)      cg2d_init_res =   1.01546117393897E-01
(PID.TID 0000.0001)      cg2d_iters(min,last) =      -1      29
(PID.TID 0000.0001)      cg2d_last_res =   4.11499931558978E-08
(PID.TID 0000.0001) // =======================================================
(PID.TID 0000.0001) // Begin MONITOR dynamic field statistics
(PID.TID 0000.0001) // =======================================================
(PID.TID 0000.0001) %MON time_tsnumber                =                     8
(PID.TID 0000.0001) %MON time_secondsf                =   2.0000000000000E+02
(PID.TID 0000.0001) %MON dynstat_eta_max              =   7.7670309089104E-04
(PID.TID 0000.0001) %MON dynstat_eta_min              =   2.4112994150706E-04
(PID.TID 0000.0001) %MON dynstat_eta_mean             =   2.5047763768848E-04
(PID.TID 0000.0001) %MON dynstat_eta_sd               =   4.1839356068168E-05
(PID.TID 0000.0001) %MON dynstat_eta_del2             =   7.9681436456673E-06
(PID.TID 0000.0001) %MON dynstat_uvel_max             =   2.8550936668529E-03
(PID.TID 0000.0001) %MON dynstat_uvel_min             =  -7.5446304799859E-04
(PID.TID 0000.0001) %MON dynstat_uvel_mean            =   1.3603857542979E-05
(PID.TID 0000.0001) %MON dynstat_uvel_sd              =   1.0361044245341E-04
(PID.TID 0000.0001) %MON dynstat_uvel_del2            =   5.3884962403241E-06
(PID.TID 0000.0001) %MON dynstat_vvel_max             =   2.8361900300310E-03
(PID.TID 0000.0001) %MON dynstat_vvel_min             =  -2.8361900300310E-03
(PID.TID 0000.0001) %MON dynstat_vvel_mean            =  -2.6936262700097E-21
(PID.TID 0000.0001) %MON dynstat_vvel_sd              =   1.5036036715934E-04
(PID.TID 0000.0001) %MON dynstat_vvel_del2            =   1.0453727242104E-05
(PID.TID 0000.0001) %MON dynstat_wvel_max             =   8.4690528734273E-04
(PID.TID 0000.0001) %MON dynstat_wvel_min             =  -6.8415540060232E-03
(PID.TID 0000.0001) %MON dynstat_wvel_mean            =  -1.8137703388726E-05
(PID.TID 0000.0001) %MON dynstat_wvel_sd              =   2.5501258398669E-04
(PID.TID 0000.0001) %MON dynstat_wvel_del2            =   1.2236858335292E-05
(PID.TID 0000.0001) %MON dynstat_theta_max            =   1.6999974814463E+00
(PID.TID 0000.0001) %MON dynstat_theta_min            =   5.5338555023664E-02
(PID.TID 0000.0001) %MON dynstat_theta_mean           =   9.7576420785414E-01
(PID.TID 0000.0001) %MON dynstat_theta_sd             =   5.8657317638967E-01
(PID.TID 0000.0001) %MON dynstat_theta_del2           =   1.2496686613318E-04
(PID.TID 0000.0001) %MON dynstat_salt_max             =   3.4483332666673E+01
(PID.TID 0000.0001) %MON dynstat_salt_min             =   3.2397227632913E+01
(PID.TID 0000.0001) %MON dynstat_salt_mean            =   3.4032169307948E+01
(PID.TID 0000.0001) %MON dynstat_salt_sd              =   5.6578210568275E-01
(PID.TID 0000.0001) %MON dynstat_salt_del2            =   5.7091342417188E-05
(PID.TID 0000.0001) %MON advcfl_uvel_max              =   3.5688670835662E-04
(PID.TID 0000.0001) %MON advcfl_vvel_max              =   3.5452375375388E-04
(PID.TID 0000.0001) %MON advcfl_wvel_max              =   1.7103885015058E-02
(PID.TID 0000.0001) %MON advcfl_W_hf_max              =   1.7103807201053E-02
(PID.TID 0000.0001) %MON pe_b_mean                    =   2.1088061422131E-09
(PID.TID 0000.0001) %MON ke_max                       =   6.0598677582466E-06
(PID.TID 0000.0001) %MON ke_mean                      =   1.5204862434510E-08
(PID.TID 0000.0001) %MON ke_vol                       =   9.7200142020830E+08
(PID.TID 0000.0001) // =======================================================
(PID.TID 0000.0001) // End MONITOR dynamic field statistics
(PID.TID 0000.0001) // =======================================================
(PID.TID 0000.0001) %CHECKPOINT         8 ckptA
(PID.TID 0000.0001)   Seconds in section "ALL                    [THE_MODEL_MAIN]":
(PID.TID 0000.0001)           User time:  0.24377700686454773
(PID.TID 0000.0001)         System time:   8.7119001429527998E-002
(PID.TID 0000.0001)     Wall clock time:  0.89585995674133301
(PID.TID 0000.0001)          No. starts:           1
(PID.TID 0000.0001)           No. stops:           1
(PID.TID 0000.0001)   Seconds in section "INITIALISE_FIXED       [THE_MODEL_MAIN]":
(PID.TID 0000.0001)           User time:   2.7068000286817551E-002
(PID.TID 0000.0001)         System time:   1.1549999471753836E-002
(PID.TID 0000.0001)     Wall clock time:   9.2087030410766602E-002
(PID.TID 0000.0001)          No. starts:           1
(PID.TID 0000.0001)           No. stops:           1
(PID.TID 0000.0001)   Seconds in section "THE_MAIN_LOOP          [THE_MODEL_MAIN]":
(PID.TID 0000.0001)           User time:  0.21669000573456287
(PID.TID 0000.0001)         System time:   7.5536997988820076E-002
(PID.TID 0000.0001)     Wall clock time:  0.80372905731201172
(PID.TID 0000.0001)          No. starts:           1
(PID.TID 0000.0001)           No. stops:           1
(PID.TID 0000.0001)   Seconds in section "INITIALISE_VARIA    [THE_MAIN_LOOP]":
(PID.TID 0000.0001)           User time:   7.3169991374015808E-003
(PID.TID 0000.0001)         System time:   7.7209994196891785E-003
(PID.TID 0000.0001)     Wall clock time:   2.5284051895141602E-002
(PID.TID 0000.0001)          No. starts:           1
(PID.TID 0000.0001)           No. stops:           1
(PID.TID 0000.0001)   Seconds in section "MAIN LOOP           [THE_MAIN_LOOP]":
(PID.TID 0000.0001)           User time:  0.20934800803661346
(PID.TID 0000.0001)         System time:   6.7802004516124725E-002
(PID.TID 0000.0001)     Wall clock time:  0.77840495109558105
(PID.TID 0000.0001)          No. starts:           1
(PID.TID 0000.0001)           No. stops:           1
(PID.TID 0000.0001)   Seconds in section "MAIN_DO_LOOP        [THE_MAIN_LOOP]":
(PID.TID 0000.0001)           User time:  0.20927101746201515
(PID.TID 0000.0001)         System time:   6.7768998444080353E-002
(PID.TID 0000.0001)     Wall clock time:  0.77829241752624512
(PID.TID 0000.0001)          No. starts:           8
(PID.TID 0000.0001)           No. stops:           8
(PID.TID 0000.0001)   Seconds in section "FORWARD_STEP        [MAIN_DO_LOOP]":
(PID.TID 0000.0001)           User time:  0.20913001894950867
(PID.TID 0000.0001)         System time:   6.7706003785133362E-002
(PID.TID 0000.0001)     Wall clock time:  0.77809286117553711
(PID.TID 0000.0001)          No. starts:           8
(PID.TID 0000.0001)           No. stops:           8
(PID.TID 0000.0001)   Seconds in section "DO_STATEVARS_DIAGS  [FORWARD_STEP]":
(PID.TID 0000.0001)           User time:   1.8769800662994385E-003
(PID.TID 0000.0001)         System time:   1.8000230193138123E-004
(PID.TID 0000.0001)     Wall clock time:   2.0637512207031250E-003
(PID.TID 0000.0001)          No. starts:          24
(PID.TID 0000.0001)           No. stops:          24
(PID.TID 0000.0001)   Seconds in section "LOAD_FIELDS_DRIVER  [FORWARD_STEP]":
(PID.TID 0000.0001)           User time:   8.5720159113407135E-003
(PID.TID 0000.0001)         System time:   1.9201263785362244E-004
(PID.TID 0000.0001)     Wall clock time:   9.1588497161865234E-003
(PID.TID 0000.0001)          No. starts:           8
(PID.TID 0000.0001)           No. stops:           8
(PID.TID 0000.0001)   Seconds in section "EXF_GETFORCING     [LOAD_FLDS_DRIVER]":
(PID.TID 0000.0001)           User time:   8.2000084221363068E-003
(PID.TID 0000.0001)         System time:   6.2994658946990967E-005
(PID.TID 0000.0001)     Wall clock time:   8.6679458618164062E-003
(PID.TID 0000.0001)          No. starts:           8
(PID.TID 0000.0001)           No. stops:           8
(PID.TID 0000.0001)   Seconds in section "EXTERNAL_FLDS_LOAD [LOAD_FLDS_DRIVER]":
(PID.TID 0000.0001)           User time:   8.4001570940017700E-005
(PID.TID 0000.0001)         System time:   2.5002285838127136E-005
(PID.TID 0000.0001)     Wall clock time:   1.0895729064941406E-004
(PID.TID 0000.0001)          No. starts:           8
(PID.TID 0000.0001)           No. stops:           8
(PID.TID 0000.0001)   Seconds in section "DO_ATMOSPHERIC_PHYS [FORWARD_STEP]":
(PID.TID 0000.0001)           User time:   7.7005475759506226E-005
(PID.TID 0000.0001)         System time:   2.7995556592941284E-005
(PID.TID 0000.0001)     Wall clock time:   1.0561943054199219E-004
(PID.TID 0000.0001)          No. starts:           8
(PID.TID 0000.0001)           No. stops:           8
(PID.TID 0000.0001)   Seconds in section "DO_OCEANIC_PHYS     [FORWARD_STEP]":
(PID.TID 0000.0001)           User time:   1.5338007360696793E-002
(PID.TID 0000.0001)         System time:   8.1999786198139191E-004
(PID.TID 0000.0001)     Wall clock time:   1.6163587570190430E-002
(PID.TID 0000.0001)          No. starts:           8
(PID.TID 0000.0001)           No. stops:           8
(PID.TID 0000.0001)   Seconds in section "ICEPLUME_CALC [DO_OCEANIC_PHYS]":
(PID.TID 0000.0001)           User time:   5.7479739189147949E-003
(PID.TID 0000.0001)         System time:   6.6599994897842407E-004
(PID.TID 0000.0001)     Wall clock time:   6.4160823822021484E-003
(PID.TID 0000.0001)          No. starts:           8
(PID.TID 0000.0001)           No. stops:           8
(PID.TID 0000.0001)   Seconds in section "DYNAMICS            [FORWARD_STEP]":
(PID.TID 0000.0001)           User time:   3.0218988656997681E-002
(PID.TID 0000.0001)         System time:   1.6300007700920105E-004
(PID.TID 0000.0001)     Wall clock time:   3.0389308929443359E-002
(PID.TID 0000.0001)          No. starts:           8
(PID.TID 0000.0001)           No. stops:           8
(PID.TID 0000.0001)   Seconds in section "UPDATE_R_STAR       [FORWARD_STEP]":
(PID.TID 0000.0001)           User time:   8.5000693798065186E-004
(PID.TID 0000.0001)         System time:   8.7000429630279541E-005
(PID.TID 0000.0001)     Wall clock time:   9.4127655029296875E-004
(PID.TID 0000.0001)          No. starts:           8
(PID.TID 0000.0001)           No. stops:           8
(PID.TID 0000.0001)   Seconds in section "UPDATE_CG2D         [FORWARD_STEP]":
(PID.TID 0000.0001)           User time:   2.4499744176864624E-004
(PID.TID 0000.0001)         System time:   3.9998441934585571E-005
(PID.TID 0000.0001)     Wall clock time:   2.8800964355468750E-004
(PID.TID 0000.0001)          No. starts:           8
(PID.TID 0000.0001)           No. stops:           8
(PID.TID 0000.0001)   Seconds in section "SOLVE_FOR_PRESSURE  [FORWARD_STEP]":
(PID.TID 0000.0001)           User time:   2.5419928133487701E-003
(PID.TID 0000.0001)         System time:   1.7699971795082092E-004
(PID.TID 0000.0001)     Wall clock time:   2.7213096618652344E-003
(PID.TID 0000.0001)          No. starts:           8
(PID.TID 0000.0001)           No. stops:           8
(PID.TID 0000.0001)   Seconds in section "MOM_CORRECTION_STEP [FORWARD_STEP]":
(PID.TID 0000.0001)           User time:   6.9499015808105469E-004
(PID.TID 0000.0001)         System time:   5.0999224185943604E-005
(PID.TID 0000.0001)     Wall clock time:   7.4887275695800781E-004
(PID.TID 0000.0001)          No. starts:           8
(PID.TID 0000.0001)           No. stops:           8
(PID.TID 0000.0001)   Seconds in section "INTEGR_CONTINUITY   [FORWARD_STEP]":
(PID.TID 0000.0001)           User time:   7.2599574923515320E-004
(PID.TID 0000.0001)         System time:   0.0000000000000000
(PID.TID 0000.0001)     Wall clock time:   7.2622299194335938E-004
(PID.TID 0000.0001)          No. starts:           8
(PID.TID 0000.0001)           No. stops:           8
(PID.TID 0000.0001)   Seconds in section "CALC_R_STAR         [FORWARD_STEP]":
(PID.TID 0000.0001)           User time:   3.3099576830863953E-004
(PID.TID 0000.0001)         System time:   0.0000000000000000
(PID.TID 0000.0001)     Wall clock time:   3.2997131347656250E-004
(PID.TID 0000.0001)          No. starts:           8
(PID.TID 0000.0001)           No. stops:           8
(PID.TID 0000.0001)   Seconds in section "BLOCKING_EXCHANGES  [FORWARD_STEP]":
(PID.TID 0000.0001)           User time:   9.8201259970664978E-004
(PID.TID 0000.0001)         System time:   1.7998740077018738E-005
(PID.TID 0000.0001)     Wall clock time:   1.0013580322265625E-003
(PID.TID 0000.0001)          No. starts:          16
(PID.TID 0000.0001)           No. stops:          16
(PID.TID 0000.0001)   Seconds in section "THERMODYNAMICS      [FORWARD_STEP]":
(PID.TID 0000.0001)           User time:   2.5513015687465668E-002
(PID.TID 0000.0001)         System time:   5.4500065743923187E-004
(PID.TID 0000.0001)     Wall clock time:   2.6073217391967773E-002
(PID.TID 0000.0001)          No. starts:           8
(PID.TID 0000.0001)           No. stops:           8
(PID.TID 0000.0001)   Seconds in section "TRC_CORRECTION_STEP [FORWARD_STEP]":
(PID.TID 0000.0001)           User time:   9.6991658210754395E-005
(PID.TID 0000.0001)         System time:   5.9995800256729126E-006
(PID.TID 0000.0001)     Wall clock time:   1.0347366333007812E-004
(PID.TID 0000.0001)          No. starts:           8
(PID.TID 0000.0001)           No. stops:           8
(PID.TID 0000.0001)   Seconds in section "MONITOR             [FORWARD_STEP]":
(PID.TID 0000.0001)           User time:   7.3389895260334015E-003
(PID.TID 0000.0001)         System time:   0.0000000000000000
(PID.TID 0000.0001)     Wall clock time:   7.3428153991699219E-003
(PID.TID 0000.0001)          No. starts:           8
(PID.TID 0000.0001)           No. stops:           8
(PID.TID 0000.0001)   Seconds in section "DO_THE_MODEL_IO     [FORWARD_STEP]":
(PID.TID 0000.0001)           User time:  0.11007099598646164
(PID.TID 0000.0001)         System time:   6.3487997278571129E-002
(PID.TID 0000.0001)     Wall clock time:  0.66729903221130371
(PID.TID 0000.0001)          No. starts:           8
(PID.TID 0000.0001)           No. stops:           8
(PID.TID 0000.0001)   Seconds in section "DO_WRITE_PICKUP     [FORWARD_STEP]":
(PID.TID 0000.0001)           User time:   1.7030052840709686E-003
(PID.TID 0000.0001)         System time:   1.6320012509822845E-003
(PID.TID 0000.0001)     Wall clock time:   1.0457277297973633E-002
(PID.TID 0000.0001)          No. starts:           8
(PID.TID 0000.0001)           No. stops:           8
(PID.TID 0000.0001) // ======================================================
(PID.TID 0000.0001) // Tile <-> Tile communication statistics
(PID.TID 0000.0001) // ======================================================
(PID.TID 0000.0001) // o Tile number: 000001
(PID.TID 0000.0001) //         No. X exchanges =              0
(PID.TID 0000.0001) //            Max. X spins =              0
(PID.TID 0000.0001) //            Min. X spins =     1000000000
(PID.TID 0000.0001) //          Total. X spins =              0
(PID.TID 0000.0001) //            Avg. X spins =       0.00E+00
(PID.TID 0000.0001) //         No. Y exchanges =              0
(PID.TID 0000.0001) //            Max. Y spins =              0
(PID.TID 0000.0001) //            Min. Y spins =     1000000000
(PID.TID 0000.0001) //          Total. Y spins =              0
(PID.TID 0000.0001) //            Avg. Y spins =       0.00E+00
(PID.TID 0000.0001) // o Thread number: 000001
(PID.TID 0000.0001) //            No. barriers =          14572
(PID.TID 0000.0001) //      Max. barrier spins =              1
(PID.TID 0000.0001) //      Min. barrier spins =              1
(PID.TID 0000.0001) //     Total barrier spins =          14572
(PID.TID 0000.0001) //      Avg. barrier spins =       1.00E+00
PROGRAM MAIN: Execution ended Normally
