(PID.TID 0000.0001) 
(PID.TID 0000.0001) // ======================================================
(PID.TID 0000.0001) //                      MITgcm UV
(PID.TID 0000.0001) //                      =========
(PID.TID 0000.0001) // ======================================================
(PID.TID 0000.0001) // execution environment starting up...
(PID.TID 0000.0001) 
(PID.TID 0000.0001) // MITgcmUV version:  checkpoint67e
(PID.TID 0000.0001) // Build user:        jmc
(PID.TID 0000.0001) // Build host:        baudelaire
(PID.TID 0000.0001) // Build date:        Wed Nov 28 18:27:09 EST 2018
(PID.TID 0000.0001) 
(PID.TID 0000.0001) // =======================================================
(PID.TID 0000.0001) // Execution Environment parameter file "eedata"
(PID.TID 0000.0001) // =======================================================
(PID.TID 0000.0001) ># Example "eedata" file
(PID.TID 0000.0001) ># Lines beginning "#" are comments
(PID.TID 0000.0001) ># nTx - No. threads per process in X
(PID.TID 0000.0001) ># nTy - No. threads per process in Y
(PID.TID 0000.0001) > &EEPARMS
(PID.TID 0000.0001) > useCubedSphereExchange=.TRUE.,
(PID.TID 0000.0001) > nTx=1,
(PID.TID 0000.0001) > nTy=1,
(PID.TID 0000.0001) >#debugMode=.TRUE.,
(PID.TID 0000.0001) > /
(PID.TID 0000.0001) ># Note: Some systems use & as the namelist terminator (as shown here).
(PID.TID 0000.0001) >#       Other systems use a / character.
(PID.TID 0000.0001) 
(PID.TID 0000.0001) // =======================================================
(PID.TID 0000.0001) // Computational Grid Specification ( see files "SIZE.h" )
(PID.TID 0000.0001) //                                  ( and "eedata"       )
(PID.TID 0000.0001) // =======================================================
(PID.TID 0000.0001)      nPx =    1 ; /* No. processes in X */
(PID.TID 0000.0001)      nPy =    1 ; /* No. processes in Y */
(PID.TID 0000.0001)      nSx =    6 ; /* No. tiles in X per process */
(PID.TID 0000.0001)      nSy =    1 ; /* No. tiles in Y per process */
(PID.TID 0000.0001)      sNx =   32 ; /* Tile size in X */
(PID.TID 0000.0001)      sNy =   32 ; /* Tile size in Y */
(PID.TID 0000.0001)      OLx =    4 ; /* Tile overlap distance in X */
(PID.TID 0000.0001)      OLy =    4 ; /* Tile overlap distance in Y */
(PID.TID 0000.0001)      nTx =    1 ; /* No. threads in X per process */
(PID.TID 0000.0001)      nTy =    1 ; /* No. threads in Y per process */
(PID.TID 0000.0001)       Nr =   40 ; /* No. levels in the vertical   */
(PID.TID 0000.0001)       Nx =  192 ; /* Total domain size in X ( = nPx*nSx*sNx ) */
(PID.TID 0000.0001)       Ny =   32 ; /* Total domain size in Y ( = nPy*nSy*sNy ) */
(PID.TID 0000.0001)   nTiles =    6 ; /* Total no. tiles per process ( = nSx*nSy ) */
(PID.TID 0000.0001)   nProcs =    1 ; /* Total no. processes ( = nPx*nPy ) */
(PID.TID 0000.0001) nThreads =    1 ; /* Total no. threads per process ( = nTx*nTy ) */
(PID.TID 0000.0001) usingMPI =    F ; /* Flag used to control whether MPI is in use */
(PID.TID 0000.0001)                   /*  note: To execute a program with MPI calls */
(PID.TID 0000.0001)                   /*  it must be launched appropriately e.g     */
(PID.TID 0000.0001)                   /*  "mpirun -np 64 ......"                    */
(PID.TID 0000.0001) useCoupler=    F ;/* Flag used to control communications with   */
(PID.TID 0000.0001)                   /*  other model components, through a coupler */
(PID.TID 0000.0001) debugMode =    F ; /* print debug msg. (sequence of S/R calls)  */
(PID.TID 0000.0001) printMapIncludesZeros=    F ; /* print zeros in Std.Output maps */
(PID.TID 0000.0001) maxLengthPrt1D=   65 /* maxLength of 1D array printed to StdOut */
(PID.TID 0000.0001) 
(PID.TID 0000.0001) // ======================================================
(PID.TID 0000.0001) // Mapping of tiles to threads
(PID.TID 0000.0001) // ======================================================
(PID.TID 0000.0001) // -o- Thread   1, tiles (   1:   6,   1:   1)
(PID.TID 0000.0001) 
(PID.TID 0000.0001) W2_READPARMS: file data.exch2 not found
(PID.TID 0000.0001) => use W2_EXCH2 default: regular 6-facets Cube
(PID.TID 0000.0001) W2_useE2ioLayOut=    T ;/* T: use Exch2 glob IO map; F: use model default */
(PID.TID 0000.0001) W2_mapIO        =  -1 ; /* select option for Exch2 global-IO map */
(PID.TID 0000.0001) W2_printMsg     =  -1 ; /* select option for printing information */
(PID.TID 0000.0001) ===== Start setting W2 TOPOLOGY:
(PID.TID 0000.0001)  write to log-file: w2_tile_topology.0000.log
(PID.TID 0000.0001) =====       setting W2 TOPOLOGY: Done
(PID.TID 0000.0001) 
(PID.TID 0000.0001)  INI_PARMS: opening model parameter file "data"
(PID.TID 0000.0001)  OPEN_COPY_DATA_FILE: opening file data
(PID.TID 0000.0001) // =======================================================
(PID.TID 0000.0001) // Parameter file "data"
(PID.TID 0000.0001) // =======================================================
(PID.TID 0000.0001) ># ====================
(PID.TID 0000.0001) ># | Model parameters |
(PID.TID 0000.0001) ># ====================
(PID.TID 0000.0001) >#
(PID.TID 0000.0001) ># Continuous equation parameters
(PID.TID 0000.0001) > &PARM01
(PID.TID 0000.0001) >#- MK: reference theta calculated from US Standard Atmosphere:
(PID.TID 0000.0001) > tRef= 287.7, 288.4, 289.3, 290.2, 291.3, 292.8, 294.5, 296.4, 298.5, 300.7,
(PID.TID 0000.0001) >       303.1, 305.7, 308.7, 312.0, 315.7, 320.1, 325.2, 330.9, 348.4, 371.0,
(PID.TID 0000.0001) >       397.3, 428.0, 463.5, 503.9, 553.4, 607.6, 665.2, 732.8, 807.8, 886.5,
(PID.TID 0000.0001) >       988.5, 1109.4, 1258.1, 1460.5, 1750.6, 2119.0, 2463.9, 2878.4, 3470.2, 4327.7,
(PID.TID 0000.0001) > sRef=40*0.,
(PID.TID 0000.0001) > viscAr=0.E1,
(PID.TID 0000.0001) > viscAh=0.E6,
(PID.TID 0000.0001) > viscA4=0.E17,
(PID.TID 0000.0001) > no_slip_sides=.FALSE.,
(PID.TID 0000.0001) > no_slip_bottom=.FALSE.,
(PID.TID 0000.0001) > diffKhT=0.E3,
(PID.TID 0000.0001) > diffKrT=0.,
(PID.TID 0000.0001) > diffK4T=0.E17,
(PID.TID 0000.0001) > diffKrS=0.E2,
(PID.TID 0000.0001) > diffKhS=0.E3,
(PID.TID 0000.0001) > diffK4S=0.E17,
(PID.TID 0000.0001) > buoyancyRelation='ATMOSPHERIC',
(PID.TID 0000.0001) > eosType='IDEALG',
(PID.TID 0000.0001) > atm_Cp=1004.64,
(PID.TID 0000.0001) > atm_Rq=0.6078,
(PID.TID 0000.0001) > integr_GeoPot=2,
(PID.TID 0000.0001) > selectFindRoSurf=1,
(PID.TID 0000.0001) > gravity=9.80,
(PID.TID 0000.0001) > implicitFreeSurface=.TRUE.,
(PID.TID 0000.0001) > exactConserv=.TRUE.,
(PID.TID 0000.0001) > select_rStar=2,
(PID.TID 0000.0001) > nonlinFreeSurf=4,
(PID.TID 0000.0001) > hFacInf=0.2,
(PID.TID 0000.0001) > hFacSup=2.0,
(PID.TID 0000.0001) > hFacMin=1.0,
(PID.TID 0000.0001) > uniformLin_PhiSurf=.FALSE.,
(PID.TID 0000.0001) > vectorInvariantMomentum=.TRUE.,
(PID.TID 0000.0001) > useAbsVorticity=.TRUE.,
(PID.TID 0000.0001) > selectVortScheme=3,
(PID.TID 0000.0001) > selectKEscheme=3,
(PID.TID 0000.0001) > addFrictionHeating=.TRUE.,
(PID.TID 0000.0001) >#tempAdvScheme=77,
(PID.TID 0000.0001) > saltAdvScheme=77,
(PID.TID 0000.0001) > staggerTimeStep=.TRUE.,
(PID.TID 0000.0001) > readBinaryPrec=64,
(PID.TID 0000.0001) > writeBinaryPrec=64,
(PID.TID 0000.0001) >#globalFiles=.TRUE.,
(PID.TID 0000.0001) > useSingleCpuIO=.TRUE.,
(PID.TID 0000.0001) > /
(PID.TID 0000.0001) >
(PID.TID 0000.0001) ># Elliptic solver parameters
(PID.TID 0000.0001) > &PARM02
(PID.TID 0000.0001) > cg2dMaxIters=200,
(PID.TID 0000.0001) > cg2dTargetResWunit=1.E-17,
(PID.TID 0000.0001) > /
(PID.TID 0000.0001) >
(PID.TID 0000.0001) ># Time stepping parameters
(PID.TID 0000.0001) > &PARM03
(PID.TID 0000.0001) > nIter0=4320000,
(PID.TID 0000.0001) ># to run 25 years:
(PID.TID 0000.0001) > nTimeSteps=4320000,
(PID.TID 0000.0001) > deltaTMom=36.,
(PID.TID 0000.0001) > deltaTtracer=180.,
(PID.TID 0000.0001) > deltaTFreeSurf=180.,
(PID.TID 0000.0001) > deltaTClock=180.,
(PID.TID 0000.0001) > abEps=0.1,
(PID.TID 0000.0001) > forcing_In_AB=.FALSE.,
(PID.TID 0000.0001) > cAdjFreq=0.,
(PID.TID 0000.0001) >#- long run (> 1.yr):
(PID.TID 0000.0001) ># chkptFreq =15552000.,
(PID.TID 0000.0001) ># pChkptFreq=31104000.,
(PID.TID 0000.0001) ># dumpFreq  =15552000.,
(PID.TID 0000.0001) ># monitorFreq= 864000.,
(PID.TID 0000.0001) >#- short run (~ months):
(PID.TID 0000.0001) > chkptFreq = 86400.,
(PID.TID 0000.0001) > pChkptFreq=2592000.,
(PID.TID 0000.0001) > dumpFreq  = 2592000.,
(PID.TID 0000.0001) >#- for testing:
(PID.TID 0000.0001) > nTimeSteps=10,
(PID.TID 0000.0001) > monitorFreq= 1.,
(PID.TID 0000.0001) > /
(PID.TID 0000.0001) >
(PID.TID 0000.0001) ># Gridding parameters
(PID.TID 0000.0001) > &PARM04
(PID.TID 0000.0001) > usingCurvilinearGrid=.TRUE.,
(PID.TID 0000.0001) > horizGridFile='dxC1_dXYa',
(PID.TID 0000.0001) > radius_fromHorizGrid=6370.E3,
(PID.TID 0000.0001) > delR= 2000., 3000., 3000., 3000., 4000., 5000., 5000., 5000., 5000., 5000.,
(PID.TID 0000.0001) >       5000., 5000., 5000., 5000., 5000., 5000., 5000., 4000., 4000., 3500.,
(PID.TID 0000.0001) >       3000., 2500., 2000., 1500., 1200., 800., 650., 500., 350., 250.,
(PID.TID 0000.0001) >       200., 150., 125., 100., 75., 50., 25., 15., 6., 3.,
(PID.TID 0000.0001) > top_Pres=1.,
(PID.TID 0000.0001) > /
(PID.TID 0000.0001) >
(PID.TID 0000.0001) ># Input datasets
(PID.TID 0000.0001) > &PARM05
(PID.TID 0000.0001) ># hydrogThetaFile='',
(PID.TID 0000.0001) ># hydrogSaltFile ='',
(PID.TID 0000.0001) > /
(PID.TID 0000.0001) 
(PID.TID 0000.0001)  INI_PARMS ; starts to read PARM01
(PID.TID 0000.0001)  INI_PARMS ; read PARM01 : OK
(PID.TID 0000.0001)  INI_PARMS ; starts to read PARM02
(PID.TID 0000.0001)  INI_PARMS ; read PARM02 : OK
(PID.TID 0000.0001)  INI_PARMS ; starts to read PARM03
(PID.TID 0000.0001)  INI_PARMS ; read PARM03 : OK
(PID.TID 0000.0001)  INI_PARMS ; starts to read PARM04
(PID.TID 0000.0001)  INI_PARMS ; read PARM04 : OK
(PID.TID 0000.0001)  INI_PARMS ; starts to read PARM05
(PID.TID 0000.0001)  INI_PARMS ; read PARM05 : OK
(PID.TID 0000.0001)  INI_PARMS: finished reading file "data"
(PID.TID 0000.0001)  PACKAGES_BOOT: opening data.pkg
(PID.TID 0000.0001)  OPEN_COPY_DATA_FILE: opening file data.pkg
(PID.TID 0000.0001) // =======================================================
(PID.TID 0000.0001) // Parameter file "data.pkg"
(PID.TID 0000.0001) // =======================================================
(PID.TID 0000.0001) ># Packages
(PID.TID 0000.0001) > &PACKAGES
(PID.TID 0000.0001) > useSHAP_FILT=.TRUE.,
(PID.TID 0000.0001) > useDiagnostics=.TRUE.,
(PID.TID 0000.0001) > useAtm_Phys=.TRUE.,
(PID.TID 0000.0001) > /
(PID.TID 0000.0001) 
(PID.TID 0000.0001)  PACKAGES_BOOT: finished reading data.pkg
(PID.TID 0000.0001)  PACKAGES_BOOT: On/Off package Summary
 --------  pkgs with a standard "usePKG" On/Off switch in "data.pkg":  --------
 pkg/shap_filt            compiled   and   used ( useSHAP_FILT             = T )
 pkg/atm_phys             compiled   and   used ( useAtm_Phys              = T )
 pkg/diagnostics          compiled   and   used ( useDiagnostics           = T )
 -------- pkgs without standard "usePKG" On/Off switch in "data.pkg":  --------
 pkg/generic_advdiff      compiled   and   used ( useGAD                   = T )
 pkg/mom_common           compiled   and   used ( momStepping              = T )
 pkg/mom_vecinv           compiled   and   used ( +vectorInvariantMomentum = T )
 pkg/mom_fluxform         compiled but not used ( & not vectorInvariantMom = F )
 pkg/monitor              compiled   and   used ( monitorFreq > 0.         = T )
 pkg/debug                compiled but not used ( debugMode                = F )
 pkg/exch2                compiled   and   used
 pkg/rw                   compiled   and   used
 pkg/mdsio                compiled   and   used
(PID.TID 0000.0001)  PACKAGES_BOOT: End of package Summary
(PID.TID 0000.0001) 
(PID.TID 0000.0001)  SHAP_FILT_READPARMS: opening data.shap
(PID.TID 0000.0001)  OPEN_COPY_DATA_FILE: opening file data.shap
(PID.TID 0000.0001) // =======================================================
(PID.TID 0000.0001) // Parameter file "data.shap"
(PID.TID 0000.0001) // =======================================================
(PID.TID 0000.0001) ># Shapiro Filter parameters
(PID.TID 0000.0001) > &SHAP_PARM01
(PID.TID 0000.0001) > shap_filt_uvStar=.FALSE.,
(PID.TID 0000.0001) > shap_filt_TrStagg=.TRUE.,
(PID.TID 0000.0001) > Shap_funct=2,
(PID.TID 0000.0001) > nShapT=4,
(PID.TID 0000.0001) > nShapS=0,
(PID.TID 0000.0001) > nShapUV=4,
(PID.TID 0000.0001) > nShapTrPhys=1,
(PID.TID 0000.0001) > nShapUVPhys=0,
(PID.TID 0000.0001) > Shap_TrLength=140000.,
(PID.TID 0000.0001) >#Shap_TrLength=115000.,
(PID.TID 0000.0001) >#Shap_uvLength=110000.,
(PID.TID 0000.0001) >#Shap_Trtau=5400.,
(PID.TID 0000.0001) >#Shap_uvtau=5400.,
(PID.TID 0000.0001) > Shap_Trtau=1800.,
(PID.TID 0000.0001) > Shap_uvtau= 900.,
(PID.TID 0000.0001) > /
(PID.TID 0000.0001) >
(PID.TID 0000.0001) 
(PID.TID 0000.0001)  SHAP_FILT_READPARMS: finished reading data.shap
(PID.TID 0000.0001) Shap_funct =   /* select Shapiro filter function */
(PID.TID 0000.0001)                       2
(PID.TID 0000.0001)     ;
(PID.TID 0000.0001) nShapT =   /* power of Shapiro filter for Temperat */
(PID.TID 0000.0001)                       4
(PID.TID 0000.0001)     ;
(PID.TID 0000.0001) nShapS =   /* power of Shapiro filter for Salinity */
(PID.TID 0000.0001)                       0
(PID.TID 0000.0001)     ;
(PID.TID 0000.0001) nShapUV =   /* power of Shapiro filter for momentum */
(PID.TID 0000.0001)                       4
(PID.TID 0000.0001)     ;
(PID.TID 0000.0001) shap_filt_uvStar = /* apply filter before Press. Solver */
(PID.TID 0000.0001)                   F
(PID.TID 0000.0001)     ;
(PID.TID 0000.0001) shap_filt_TrStagg = /* filter T,S before calc PhiHyd (staggerTimeStep) */
(PID.TID 0000.0001)                   T
(PID.TID 0000.0001)     ;
(PID.TID 0000.0001) Shap_alwaysExchUV = /* always exch(U,V)    nShapUV times*/
(PID.TID 0000.0001)                   F
(PID.TID 0000.0001)     ;
(PID.TID 0000.0001) Shap_alwaysExchTr = /* always exch(Tracer) nShapTr times*/
(PID.TID 0000.0001)                   F
(PID.TID 0000.0001)     ;
(PID.TID 0000.0001) nShapTrPhys =   /* power of physical-space filter (Tracer) */
(PID.TID 0000.0001)                       1
(PID.TID 0000.0001)     ;
(PID.TID 0000.0001) nShapUVPhys =   /* power of physical-space filter (Momentum) */
(PID.TID 0000.0001)                       0
(PID.TID 0000.0001)     ;
(PID.TID 0000.0001) Shap_Trtau =   /* time scale of Shapiro filter (Tracer) */
(PID.TID 0000.0001)                 1.800000000000000E+03
(PID.TID 0000.0001)     ;
(PID.TID 0000.0001) Shap_TrLength =   /* Length scale of Shapiro filter (Tracer) */
(PID.TID 0000.0001)                 1.400000000000000E+05
(PID.TID 0000.0001)     ;
(PID.TID 0000.0001) Shap_uvtau =   /* time scale of Shapiro filter (Momentum) */
(PID.TID 0000.0001)                 9.000000000000000E+02
(PID.TID 0000.0001)     ;
(PID.TID 0000.0001) Shap_uvLength =   /* Length scale of Shapiro filter (Momentum) */
(PID.TID 0000.0001)                 0.000000000000000E+00
(PID.TID 0000.0001)     ;
(PID.TID 0000.0001) Shap_noSlip =  /* No-slip parameter (0=Free-slip ; 1=No-slip)*/
(PID.TID 0000.0001)                 0.000000000000000E+00
(PID.TID 0000.0001)     ;
(PID.TID 0000.0001) Shap_diagFreq =   /* Frequency^-1 for diagnostic output (s)*/
(PID.TID 0000.0001)                 0.000000000000000E+00
(PID.TID 0000.0001)     ;
(PID.TID 0000.0001) ATM_PHYS_READPARMS: opening data.atm_phys
(PID.TID 0000.0001)  OPEN_COPY_DATA_FILE: opening file data.atm_phys
(PID.TID 0000.0001) // =======================================================
(PID.TID 0000.0001) // Parameter file "data.atm_phys"
(PID.TID 0000.0001) // =======================================================
(PID.TID 0000.0001) >#
(PID.TID 0000.0001) > &ATM_PHYS_PARM01
(PID.TID 0000.0001) >#atmPhys_addTendT=.FALSE.,
(PID.TID 0000.0001) >#atmPhys_addTendS=.FALSE.,
(PID.TID 0000.0001) >#atmPhys_addTendU=.FALSE.,
(PID.TID 0000.0001) >#atmPhys_addTendV=.FALSE.,
(PID.TID 0000.0001) > atmPhys_tauDampUV = 86400.,
(PID.TID 0000.0001) > atmPhys_dampUVfac = 21*0., 0.0340, 0.0364, 0.0390, 0.0419, 0.0451, 0.0476, 0.05, 0.0526,
(PID.TID 0000.0001) >       0.0556, 0.0588, 0.0625, 0.0667, 0.0714, 0.0769, 0.0833, 0.1, 0.25, 0.5618, 0.625,
(PID.TID 0000.0001) >#- initial SST file:
(PID.TID 0000.0001) > atmPhys_SSTFile='SST_APE_plus2K.bin',
(PID.TID 0000.0001) >#- 3D ozone vmr file:
(PID.TID 0000.0001) > atmPhys_ozoneFile='ape_ozone_in.bin'
(PID.TID 0000.0001) >#- Q-flux file:
(PID.TID 0000.0001) > atmPhys_QflxFile='Qflux_diagnosed.bin',
(PID.TID 0000.0001) >#- update SST (default = False = keep the same SST):
(PID.TID 0000.0001) > atmPhys_stepSST=.TRUE.,
(PID.TID 0000.0001) > /
(PID.TID 0000.0001) 
(PID.TID 0000.0001) ATM_PHYS_READPARMS: finished reading data.atm_phys
(PID.TID 0000.0001)  DIAGNOSTICS_READPARMS: opening data.diagnostics
(PID.TID 0000.0001)  OPEN_COPY_DATA_FILE: opening file data.diagnostics
(PID.TID 0000.0001) // =======================================================
(PID.TID 0000.0001) // Parameter file "data.diagnostics"
(PID.TID 0000.0001) // =======================================================
(PID.TID 0000.0001) ># Diagnostic Package Choices
(PID.TID 0000.0001) >#--------------------
(PID.TID 0000.0001) >#  dumpAtLast (logical): always write output at the end of simulation (default=F)
(PID.TID 0000.0001) >#  diag_mnc   (logical): write to NetCDF files (default=useMNC)
(PID.TID 0000.0001) >#--for each output-stream:
(PID.TID 0000.0001) >#  fileName(n) : prefix of the output file name (max 80c long) for outp.stream n
(PID.TID 0000.0001) >#  frequency(n):< 0 : write snap-shot output every |frequency| seconds
(PID.TID 0000.0001) >#               > 0 : write time-average output every frequency seconds
(PID.TID 0000.0001) >#  timePhase(n)     : write at time = timePhase + multiple of |frequency|
(PID.TID 0000.0001) >#    averagingFreq  : frequency (in s) for periodic averaging interval
(PID.TID 0000.0001) >#    averagingPhase : phase     (in s) for periodic averaging interval
(PID.TID 0000.0001) >#    repeatCycle    : number of averaging intervals in 1 cycle
(PID.TID 0000.0001) >#  levels(:,n) : list of levels to write to file (Notes: declared as REAL)
(PID.TID 0000.0001) >#                when this entry is missing, select all common levels of this list
(PID.TID 0000.0001) >#  fields(:,n) : list of selected diagnostics fields (8.c) in outp.stream n
(PID.TID 0000.0001) >#                (see "available_diagnostics.log" file for the full list of diags)
(PID.TID 0000.0001) >#  missing_value(n) : missing value for real-type fields in output file "n"
(PID.TID 0000.0001) >#  fileFlags(n)     : specific code (8c string) for output file "n"
(PID.TID 0000.0001) >#--------------------
(PID.TID 0000.0001) > &DIAGNOSTICS_LIST
(PID.TID 0000.0001) ># diag_mnc     = .FALSE.,
(PID.TID 0000.0001) >#--
(PID.TID 0000.0001) >  fields(1:16,1) = 'ETAN    ','ETANSQ  ','DETADT2 ',
(PID.TID 0000.0001) >                   'AtPhCnvP','AtPhLscP','AtPhCAPE',
(PID.TID 0000.0001) >                   'AtPhSens','AtPhEvap','AtPhTauX','AtPhTauY',
(PID.TID 0000.0001) >                   'AtPh_SST','AtPhNTSR','AtPhOLR ',
(PID.TID 0000.0001) >                   'AtPhNSSR','AtPhDSLR','AtPhUSLR',
(PID.TID 0000.0001) >   fileName(1) = 'surfDiag',
(PID.TID 0000.0001) ># fileFlags(1) = 'D       ',
(PID.TID 0000.0001) >  frequency(1) = 2592000.,
(PID.TID 0000.0001) ># ( = 1 month)
(PID.TID 0000.0001) >#-
(PID.TID 0000.0001) >  fields(1:21,2) = 'UVEL    ','VVEL    ','WVEL    ','THETA   ','SALT    ',
(PID.TID 0000.0001) >                   'UVELSQ  ','VVELSQ  ','WVELSQ  ','THETASQ ','SALTSQ  ',
(PID.TID 0000.0001) >                   'UVELMASS','VVELMASS','UE_VEL_C','VN_VEL_C','UV_VEL_C',
(PID.TID 0000.0001) >                   'WU_VEL  ','WV_VEL  ','UVELTH  ','VVELTH  ','WVELTH  ',
(PID.TID 0000.0001) >                   'RELHUM  ',
(PID.TID 0000.0001) >#                  'ADVx_TH ','ADVy_TH ','ADVr_TH ',
(PID.TID 0000.0001) >#                  'ADVx_SLT','ADVy_SLT','ADVr_SLT',
(PID.TID 0000.0001) >   fileName(2) = 'dynDiag',
(PID.TID 0000.0001) >  frequency(2) = 2592000.,
(PID.TID 0000.0001) ># ( = 1 month)
(PID.TID 0000.0001) >#-
(PID.TID 0000.0001) >  fields(1:11,3) = 'AtPhdTdt','AtPhdQdt','AtPhdUdt','AtPhdVdt',
(PID.TID 0000.0001) >#                  'AtPhdtTg','AtPhdtQg','AtPhDifT','AtPhDifM',
(PID.TID 0000.0001) >                   'AtPhDisH','HeatDiss','MoistCor','SHAP_dKE',
(PID.TID 0000.0001) >                   'AtPhdTrd','AtPhdTlc','AtPhdTcv',
(PID.TID 0000.0001) >   fileName(3) = 'physDiag',
(PID.TID 0000.0001) >  frequency(3) = 2592000.,
(PID.TID 0000.0001) ># ( = 1 month)
(PID.TID 0000.0001) >#-
(PID.TID 0000.0001) >  fields(1:8,4)  = 'AtPhCnvP','AtPhLscP','AtPhCAPE',
(PID.TID 0000.0001) >                   'AtPhCnIn','AtPhKlzb','AtPhConv',
(PID.TID 0000.0001) >                   'AtPhRlxT','AtPhRlxQ',
(PID.TID 0000.0001) >  fileName(4) = 'convDiag',
(PID.TID 0000.0001) ># timePhase(4) =  31103600.,
(PID.TID 0000.0001) >#  frequency(4) = -172800.,
(PID.TID 0000.0001) >  frequency(4) = 2592000.,
(PID.TID 0000.0001) ># ( = 1 month)
(PID.TID 0000.0001) >#-
(PID.TID 0000.0001) >  fields(1:4,5)  = 'AtPhNSR ','AtPhNLR ','AtPhDSR ','AtPhDLR ',
(PID.TID 0000.0001) >   fileName(5) = 'radDiag',
(PID.TID 0000.0001) ># timePhase(5) =  31103600.,
(PID.TID 0000.0001) >#  frequency(5) = -172800.,
(PID.TID 0000.0001) >  frequency(5) = 2592000.,
(PID.TID 0000.0001) ># ( = 1 month)
(PID.TID 0000.0001) >#-
(PID.TID 0000.0001) >#  fields(1:17,6) = 'UVEL    ','VVEL    ','AtPhdUdt','AtPhdVdt',
(PID.TID 0000.0001) >#                   'Um_Advec','Vm_Advec','Um_dPHdx','Vm_dPHdy',
(PID.TID 0000.0001) >#                   'Um_Ext  ','Vm_Ext  ','SHAP_dU ','SHAP_dV ',
(PID.TID 0000.0001) >#                   'Um_AdvRe','Vm_AdvZ3','Um_AdvZ3','Vm_AdvRe',
(PID.TID 0000.0001) >#                   'momKE   ',
(PID.TID 0000.0001) >#   fileName(6) = 'momDiag',
(PID.TID 0000.0001) >#  frequency(6) = 2592000.,
(PID.TID 0000.0001) >## ( = 1 month)
(PID.TID 0000.0001) >#  fields(1:14,7) = 'UVEL    ','VVEL    ','WVEL    ',
(PID.TID 0000.0001) >#                   'THETA   ','SALT    ','UE_VEL_C',
(PID.TID 0000.0001) >#                   'VN_VEL_C','UV_VEL_C','WU_VEL  ','WV_VEL  ',
(PID.TID 0000.0001) >#                   'UVELTH  ','VVELTH  ','WVELTH  ','AtPhdTdt',
(PID.TID 0000.0001) >#   fileName(7) = 'daily3dDiag',
(PID.TID 0000.0001) >#  frequency(7) = 86400.,
(PID.TID 0000.0001) >## ( = 1 day)
(PID.TID 0000.0001) >#  fields(1:4,8) = 'ETAN    ','AtPh_SST','AtPhCnvP','AtPhLscP',
(PID.TID 0000.0001) >#   fileName(8) = 'dailySurfDiag',
(PID.TID 0000.0001) >#  frequency(8) = 86400.,
(PID.TID 0000.0001) >## ( = 1 day)
(PID.TID 0000.0001) >#
(PID.TID 0000.0001) >
(PID.TID 0000.0001) > /
(PID.TID 0000.0001) >
(PID.TID 0000.0001) >#--------------------
(PID.TID 0000.0001) ># Parameter for Diagnostics of per level statistics:
(PID.TID 0000.0001) >#--------------------
(PID.TID 0000.0001) >#  diagSt_mnc (logical): write stat-diags to NetCDF files (default=diag_mnc)
(PID.TID 0000.0001) >#  diagSt_regMaskFile : file containing the region-mask to read-in
(PID.TID 0000.0001) >#  nSetRegMskFile   : number of region-mask sets within the region-mask file
(PID.TID 0000.0001) >#  set_regMask(i)   : region-mask set-index that identifies the region "i"
(PID.TID 0000.0001) >#  val_regMask(i)   : region "i" identifier value in the region mask
(PID.TID 0000.0001) >#--for each output-stream:
(PID.TID 0000.0001) >#  stat_fName(n) : prefix of the output file name (max 80c long) for outp.stream n
(PID.TID 0000.0001) >#  stat_freq(n):< 0 : write snap-shot output every |stat_freq| seconds
(PID.TID 0000.0001) >#               > 0 : write time-average output every stat_freq seconds
(PID.TID 0000.0001) >#  stat_phase(n)    : write at time = stat_phase + multiple of |stat_freq|
(PID.TID 0000.0001) >#  stat_region(:,n) : list of "regions" (default: 1 region only=global)
(PID.TID 0000.0001) >#  stat_fields(:,n) : list of selected diagnostics fields (8.c) in outp.stream n
(PID.TID 0000.0001) >#                (see "available_diagnostics.log" file for the full list of diags)
(PID.TID 0000.0001) >#--------------------
(PID.TID 0000.0001) > &DIAG_STATIS_PARMS
(PID.TID 0000.0001) > stat_fields(1:11,1) = 'ETAN    ','THETA   ','SALT    ','RELHUM  ',
(PID.TID 0000.0001) >                       'UE_VEL_C','VN_VEL_C','WVEL    ',
(PID.TID 0000.0001) >                       'AtPhdTdt','AtPhdQdt','AtPhdUdt','AtPhdVdt',
(PID.TID 0000.0001) >  stat_fName(1) = 'dynStDiag',
(PID.TID 0000.0001) >#  stat_freq(1) = 432000.,
(PID.TID 0000.0001) >#  stat_freq(1) = 43200.,
(PID.TID 0000.0001) >  stat_freq(1) = 21600.,
(PID.TID 0000.0001) >#  stat_freq(1) = 3600.,
(PID.TID 0000.0001) >#  stat_phase(1) = 0.,
(PID.TID 0000.0001) > stat_fields(1:11,2) = 'AtPhdtTg','AtPhdtQg','AtPhDifT','AtPhDifM',
(PID.TID 0000.0001) >                       'AtPhDisH','HeatDiss','MoistCor','SHAP_dKE',
(PID.TID 0000.0001) >                       'AtPhdTrd','AtPhdTlc','AtPhdTcv',
(PID.TID 0000.0001) >  stat_fName(2) = 'phyStDiag',
(PID.TID 0000.0001) >#  stat_freq(2) = 432000.,
(PID.TID 0000.0001) >#  stat_freq(2) = 43200.,
(PID.TID 0000.0001) >   stat_freq(2) = 21600.,
(PID.TID 0000.0001) >#  stat_freq(2) = 3600.,
(PID.TID 0000.0001) >#  stat_phase(2) = 0.,
(PID.TID 0000.0001) > stat_fields(1:17,3) = 'AtPhSens','AtPhEvap','AtPhTauX','AtPhTauY',
(PID.TID 0000.0001) >                       'AtPhCnvP','AtPhLscP','AtPhCAPE',
(PID.TID 0000.0001) >                       'AtPh_SST','AtPhNTSR','AtPhOLR ',
(PID.TID 0000.0001) >                       'AtPhNSSR','AtPhDSLR','AtPhUSLR',
(PID.TID 0000.0001) >                       'AtPhNSR ','AtPhNLR ','AtPhDSR ','AtPhDLR ',
(PID.TID 0000.0001) >  stat_fName(3) = 'flxStDiag',
(PID.TID 0000.0001) >#  stat_freq(3) = 432000.,
(PID.TID 0000.0001) >#  stat_freq(3) = 43200.,
(PID.TID 0000.0001) >   stat_freq(3) = 21600.,
(PID.TID 0000.0001) >#  stat_freq(3) = 3600.,
(PID.TID 0000.0001) >#  stat_phase(3) = 0.,
(PID.TID 0000.0001) > /
(PID.TID 0000.0001) >
(PID.TID 0000.0001) 
(PID.TID 0000.0001) S/R DIAGNOSTICS_READPARMS, read namelist "diagnostics_list": start
(PID.TID 0000.0001) S/R DIAGNOSTICS_READPARMS, read namelist "diagnostics_list": OK
(PID.TID 0000.0001) S/R DIAGNOSTICS_READPARMS, read namelist "DIAG_STATIS_PARMS": start
(PID.TID 0000.0001) S/R DIAGNOSTICS_READPARMS, read namelist "DIAG_STATIS_PARMS": OK
(PID.TID 0000.0001)  DIAGNOSTICS_READPARMS: global parameter summary:
(PID.TID 0000.0001)  dumpAtLast = /* always write time-ave diags at the end */
(PID.TID 0000.0001)                   F
(PID.TID 0000.0001)     ;
(PID.TID 0000.0001)  diag_mnc =   /* write NetCDF output files */
(PID.TID 0000.0001)                   F
(PID.TID 0000.0001)     ;
(PID.TID 0000.0001)  useMissingValue = /* put MissingValue where mask = 0 */
(PID.TID 0000.0001)                   F
(PID.TID 0000.0001)     ;
(PID.TID 0000.0001)  diagCG_maxIters = /* max number of iters in diag_cg2d */
(PID.TID 0000.0001)                     200
(PID.TID 0000.0001)     ;
(PID.TID 0000.0001)  diagCG_resTarget = /* residual target for diag_cg2d */
(PID.TID 0000.0001)                 1.000000000000000E-07
(PID.TID 0000.0001)     ;
(PID.TID 0000.0001)  diagCG_pcOffDFac = /* preconditioner off-diagonal factor */
(PID.TID 0000.0001)                 9.611687812379854E-01
(PID.TID 0000.0001)     ;
(PID.TID 0000.0001) -----------------------------------------------------
(PID.TID 0000.0001)  DIAGNOSTICS_READPARMS: active diagnostics summary:
(PID.TID 0000.0001) -----------------------------------------------------
(PID.TID 0000.0001) Creating Output Stream: surfDiag
(PID.TID 0000.0001) Output Frequency:    2592000.000000 ; Phase:           0.000000
(PID.TID 0000.0001)  Averaging Freq.:    2592000.000000 , Phase:           0.000000 , Cycle:   1
(PID.TID 0000.0001)  missing value: -9.990000000000E+02
(PID.TID 0000.0001)  Levels:    will be set later
(PID.TID 0000.0001)  Fields:    ETAN     ETANSQ   DETADT2  AtPhCnvP AtPhLscP AtPhCAPE AtPhSens AtPhEvap AtPhTauX AtPhTauY
(PID.TID 0000.0001)  Fields:    AtPh_SST AtPhNTSR AtPhOLR  AtPhNSSR AtPhDSLR AtPhUSLR
(PID.TID 0000.0001) Creating Output Stream: dynDiag
(PID.TID 0000.0001) Output Frequency:    2592000.000000 ; Phase:           0.000000
(PID.TID 0000.0001)  Averaging Freq.:    2592000.000000 , Phase:           0.000000 , Cycle:   1
(PID.TID 0000.0001)  missing value: -9.990000000000E+02
(PID.TID 0000.0001)  Levels:    will be set later
(PID.TID 0000.0001)  Fields:    UVEL     VVEL     WVEL     THETA    SALT     UVELSQ   VVELSQ   WVELSQ   THETASQ  SALTSQ
(PID.TID 0000.0001)  Fields:    UVELMASS VVELMASS UE_VEL_C VN_VEL_C UV_VEL_C WU_VEL   WV_VEL   UVELTH   VVELTH   WVELTH
(PID.TID 0000.0001)  Fields:    RELHUM
(PID.TID 0000.0001) Creating Output Stream: physDiag
(PID.TID 0000.0001) Output Frequency:    2592000.000000 ; Phase:           0.000000
(PID.TID 0000.0001)  Averaging Freq.:    2592000.000000 , Phase:           0.000000 , Cycle:   1
(PID.TID 0000.0001)  missing value: -9.990000000000E+02
(PID.TID 0000.0001)  Levels:    will be set later
(PID.TID 0000.0001)  Fields:    AtPhdTdt AtPhdQdt AtPhdUdt AtPhdVdt AtPhDisH HeatDiss MoistCor SHAP_dKE AtPhdTrd AtPhdTlc
(PID.TID 0000.0001)  Fields:    AtPhdTcv
(PID.TID 0000.0001) Creating Output Stream: convDiag
(PID.TID 0000.0001) Output Frequency:    2592000.000000 ; Phase:           0.000000
(PID.TID 0000.0001)  Averaging Freq.:    2592000.000000 , Phase:           0.000000 , Cycle:   1
(PID.TID 0000.0001)  missing value: -9.990000000000E+02
(PID.TID 0000.0001)  Levels:    will be set later
(PID.TID 0000.0001)  Fields:    AtPhCnvP AtPhLscP AtPhCAPE AtPhCnIn AtPhKlzb AtPhConv AtPhRlxT AtPhRlxQ
(PID.TID 0000.0001) Creating Output Stream: radDiag
(PID.TID 0000.0001) Output Frequency:    2592000.000000 ; Phase:           0.000000
(PID.TID 0000.0001)  Averaging Freq.:    2592000.000000 , Phase:           0.000000 , Cycle:   1
(PID.TID 0000.0001)  missing value: -9.990000000000E+02
(PID.TID 0000.0001)  Levels:    will be set later
(PID.TID 0000.0001)  Fields:    AtPhNSR  AtPhNLR  AtPhDSR  AtPhDLR
(PID.TID 0000.0001) -----------------------------------------------------
(PID.TID 0000.0001)  DIAGNOSTICS_READPARMS: statistics diags. summary:
(PID.TID 0000.0001) Creating Stats. Output Stream: dynStDiag
(PID.TID 0000.0001) Output Frequency:      21600.000000 ; Phase:           0.000000
(PID.TID 0000.0001)  Regions:   0
(PID.TID 0000.0001)  Fields:    ETAN     THETA    SALT     RELHUM   UE_VEL_C VN_VEL_C WVEL     AtPhdTdt AtPhdQdt AtPhdUdt
(PID.TID 0000.0001)  Fields:    AtPhdVdt
(PID.TID 0000.0001) Creating Stats. Output Stream: phyStDiag
(PID.TID 0000.0001) Output Frequency:      21600.000000 ; Phase:           0.000000
(PID.TID 0000.0001)  Regions:   0
(PID.TID 0000.0001)  Fields:    AtPhdtTg AtPhdtQg AtPhDifT AtPhDifM AtPhDisH HeatDiss MoistCor SHAP_dKE AtPhdTrd AtPhdTlc
(PID.TID 0000.0001)  Fields:    AtPhdTcv
(PID.TID 0000.0001) Creating Stats. Output Stream: flxStDiag
(PID.TID 0000.0001) Output Frequency:      21600.000000 ; Phase:           0.000000
(PID.TID 0000.0001)  Regions:   0
(PID.TID 0000.0001)  Fields:    AtPhSens AtPhEvap AtPhTauX AtPhTauY AtPhCnvP AtPhLscP AtPhCAPE AtPh_SST AtPhNTSR AtPhOLR
(PID.TID 0000.0001)  Fields:    AtPhNSSR AtPhDSLR AtPhUSLR AtPhNSR  AtPhNLR  AtPhDSR  AtPhDLR
(PID.TID 0000.0001) -----------------------------------------------------
(PID.TID 0000.0001) 
(PID.TID 0000.0001) SET_PARMS: done
(PID.TID 0000.0001) Enter INI_VERTICAL_GRID: setInterFDr=    T ; setCenterDr=    F
(PID.TID 0000.0001) tile:   1 ; Read from file dxC1_dXYa.face001.bin
(PID.TID 0000.0001)   => xC yC dxF dyF rA xG yG dxV dyU rAz dxC dyC rAw rAs dxG dyG AngleCS AngleSN
(PID.TID 0000.0001) tile:   2 ; Read from file dxC1_dXYa.face002.bin
(PID.TID 0000.0001)   => xC yC dxF dyF rA xG yG dxV dyU rAz dxC dyC rAw rAs dxG dyG AngleCS AngleSN
(PID.TID 0000.0001) tile:   3 ; Read from file dxC1_dXYa.face003.bin
(PID.TID 0000.0001)   => xC yC dxF dyF rA xG yG dxV dyU rAz dxC dyC rAw rAs dxG dyG AngleCS AngleSN
(PID.TID 0000.0001) tile:   4 ; Read from file dxC1_dXYa.face004.bin
(PID.TID 0000.0001)   => xC yC dxF dyF rA xG yG dxV dyU rAz dxC dyC rAw rAs dxG dyG AngleCS AngleSN
(PID.TID 0000.0001) tile:   5 ; Read from file dxC1_dXYa.face005.bin
(PID.TID 0000.0001)   => xC yC dxF dyF rA xG yG dxV dyU rAz dxC dyC rAw rAs dxG dyG AngleCS AngleSN
(PID.TID 0000.0001) tile:   6 ; Read from file dxC1_dXYa.face006.bin
(PID.TID 0000.0001)   => xC yC dxF dyF rA xG yG dxV dyU rAz dxC dyC rAw rAs dxG dyG AngleCS AngleSN
(PID.TID 0000.0001) %MON XC_max                       =   1.7854351589505E+02
(PID.TID 0000.0001) %MON XC_min                       =  -1.7854351589505E+02
(PID.TID 0000.0001) %MON XC_mean                      =  -4.6999441375798E-15
(PID.TID 0000.0001) %MON XC_sd                        =   1.0355545336287E+02
(PID.TID 0000.0001) %MON XG_max                       =   1.8000000000000E+02
(PID.TID 0000.0001) %MON XG_min                       =  -1.7708797161002E+02
(PID.TID 0000.0001) %MON XG_mean                      =   1.8603515625000E+00
(PID.TID 0000.0001) %MON XG_sd                        =   1.0357130300504E+02
(PID.TID 0000.0001) %MON DXC_max                      =   3.2375185836900E+05
(PID.TID 0000.0001) %MON DXC_min                      =   1.1353730006923E+05
(PID.TID 0000.0001) %MON DXC_mean                     =   2.8606102525036E+05
(PID.TID 0000.0001) %MON DXC_sd                       =   3.4020997630307E+04
(PID.TID 0000.0001) %MON DXF_max                      =   3.2369947500827E+05
(PID.TID 0000.0001) %MON DXF_min                      =   1.2020820513318E+05
(PID.TID 0000.0001) %MON DXF_mean                     =   2.8605437324820E+05
(PID.TID 0000.0001) %MON DXF_sd                       =   3.4050524252539E+04
(PID.TID 0000.0001) %MON DXG_max                      =   3.2375195872773E+05
(PID.TID 0000.0001) %MON DXG_min                      =   1.0098378008791E+05
(PID.TID 0000.0001) %MON DXG_mean                     =   2.8603818508931E+05
(PID.TID 0000.0001) %MON DXG_sd                       =   3.4140406908005E+04
(PID.TID 0000.0001) %MON DXV_max                      =   3.2380418162750E+05
(PID.TID 0000.0001) %MON DXV_min                      =   8.0152299824136E+04
(PID.TID 0000.0001) %MON DXV_mean                     =   2.8603970633619E+05
(PID.TID 0000.0001) %MON DXV_sd                       =   3.4145142117723E+04
(PID.TID 0000.0001) %MON YC_max                       =   8.7940663871962E+01
(PID.TID 0000.0001) %MON YC_min                       =  -8.7940663871962E+01
(PID.TID 0000.0001) %MON YC_mean                      =   0.0000000000000E+00
(PID.TID 0000.0001) %MON YC_sd                        =   3.8676242969072E+01
(PID.TID 0000.0001) %MON YG_max                       =   9.0000000000000E+01
(PID.TID 0000.0001) %MON YG_min                       =  -9.0000000000000E+01
(PID.TID 0000.0001) %MON YG_mean                      =  -1.1842378929335E-15
(PID.TID 0000.0001) %MON YG_sd                        =   3.8676895860710E+01
(PID.TID 0000.0001) %MON DYC_max                      =   3.2375185836900E+05
(PID.TID 0000.0001) %MON DYC_min                      =   1.1353730006923E+05
(PID.TID 0000.0001) %MON DYC_mean                     =   2.8606102525036E+05
(PID.TID 0000.0001) %MON DYC_sd                       =   3.4020997630307E+04
(PID.TID 0000.0001) %MON DYF_max                      =   3.2369947500827E+05
(PID.TID 0000.0001) %MON DYF_min                      =   1.2020820513318E+05
(PID.TID 0000.0001) %MON DYF_mean                     =   2.8605437324820E+05
(PID.TID 0000.0001) %MON DYF_sd                       =   3.4050524252539E+04
(PID.TID 0000.0001) %MON DYG_max                      =   3.2375195872773E+05
(PID.TID 0000.0001) %MON DYG_min                      =   1.0098378008791E+05
(PID.TID 0000.0001) %MON DYG_mean                     =   2.8603818508931E+05
(PID.TID 0000.0001) %MON DYG_sd                       =   3.4140406908005E+04
(PID.TID 0000.0001) %MON DYU_max                      =   3.2380418162750E+05
(PID.TID 0000.0001) %MON DYU_min                      =   8.0152299824136E+04
(PID.TID 0000.0001) %MON DYU_mean                     =   2.8603970633619E+05
(PID.TID 0000.0001) %MON DYU_sd                       =   3.4145142117723E+04
(PID.TID 0000.0001) %MON RA_max                       =   1.0474757731659E+11
(PID.TID 0000.0001) %MON RA_min                       =   1.5497867056722E+10
(PID.TID 0000.0001) %MON RA_mean                      =   8.2985711332657E+10
(PID.TID 0000.0001) %MON RA_sd                        =   1.7448591913787E+10
(PID.TID 0000.0001) %MON RAW_max                      =   1.0481529828871E+11
(PID.TID 0000.0001) %MON RAW_min                      =   1.1465425741966E+10
(PID.TID 0000.0001) %MON RAW_mean                     =   8.2985711332657E+10
(PID.TID 0000.0001) %MON RAW_sd                       =   1.7503889570793E+10
(PID.TID 0000.0001) %MON RAS_max                      =   1.0481529828871E+11
(PID.TID 0000.0001) %MON RAS_min                      =   1.1465425741966E+10
(PID.TID 0000.0001) %MON RAS_mean                     =   8.2985711332657E+10
(PID.TID 0000.0001) %MON RAS_sd                       =   1.7503889570793E+10
(PID.TID 0000.0001) %MON RAZ_max                      =   1.0484349334619E+11
(PID.TID 0000.0001) %MON RAZ_min                      =   8.8317900612505E+09
(PID.TID 0000.0001) %MON RAZ_mean                     =   8.2992246709235E+10
(PID.TID 0000.0001) %MON RAZ_sd                       =   1.7482297311044E+10
(PID.TID 0000.0001) %MON AngleCS_max                  =   9.9999994756719E-01
(PID.TID 0000.0001) %MON AngleCS_min                  =  -9.9968286884824E-01
(PID.TID 0000.0001) %MON AngleCS_mean                 =   3.3078922539000E-01
(PID.TID 0000.0001) %MON AngleCS_sd                   =   6.2496278958502E-01
(PID.TID 0000.0001) %MON AngleSN_max                  =   9.9968286884824E-01
(PID.TID 0000.0001) %MON AngleSN_min                  =  -9.9999994756719E-01
(PID.TID 0000.0001) %MON AngleSN_mean                 =  -3.3078922539000E-01
(PID.TID 0000.0001) %MON AngleSN_sd                   =   6.2496278958502E-01
(PID.TID 0000.0001) 
(PID.TID 0000.0001) SET_REF_STATE: PhiRef/g [m] at level Center (integer)
(PID.TID 0000.0001)                      and at level Interface (half-int.) :
(PID.TID 0000.0001)  K=  0.5  ;  r=       100000.0  ;  phiRef/g=        0.000
(PID.TID 0000.0001)  K=  1.0  ;  r=        99000.0  ;  phiRef/g=       84.569
(PID.TID 0000.0001)  K=  1.5  ;  r=        98000.0  ;  phiRef/g=      191.633
(PID.TID 0000.0001)  K=  2.0  ;  r=        96500.0  ;  phiRef/g=      298.696
(PID.TID 0000.0001)  K=  2.5  ;  r=        95000.0  ;  phiRef/g=      429.820
(PID.TID 0000.0001)  K=  3.0  ;  r=        93500.0  ;  phiRef/g=      560.943
(PID.TID 0000.0001)  K=  3.5  ;  r=        92000.0  ;  phiRef/g=      695.108
(PID.TID 0000.0001)  K=  4.0  ;  r=        90500.0  ;  phiRef/g=      829.272
(PID.TID 0000.0001)  K=  4.5  ;  r=        89000.0  ;  phiRef/g=      989.874
(PID.TID 0000.0001)  K=  5.0  ;  r=        87000.0  ;  phiRef/g=     1150.476
(PID.TID 0000.0001)  K=  5.5  ;  r=        85000.0  ;  phiRef/g=     1363.894
(PID.TID 0000.0001)  K=  6.0  ;  r=        82500.0  ;  phiRef/g=     1577.311
(PID.TID 0000.0001)  K=  6.5  ;  r=        80000.0  ;  phiRef/g=     1824.429
(PID.TID 0000.0001)  K=  7.0  ;  r=        77500.0  ;  phiRef/g=     2071.547
(PID.TID 0000.0001)  K=  7.5  ;  r=        75000.0  ;  phiRef/g=     2330.330
(PID.TID 0000.0001)  K=  8.0  ;  r=        72500.0  ;  phiRef/g=     2589.114
(PID.TID 0000.0001)  K=  8.5  ;  r=        70000.0  ;  phiRef/g=     2860.979
(PID.TID 0000.0001)  K=  9.0  ;  r=        67500.0  ;  phiRef/g=     3132.844
(PID.TID 0000.0001)  K=  9.5  ;  r=        65000.0  ;  phiRef/g=     3419.500
(PID.TID 0000.0001)  K= 10.0  ;  r=        62500.0  ;  phiRef/g=     3706.156
(PID.TID 0000.0001)  K= 10.5  ;  r=        60000.0  ;  phiRef/g=     4009.694
(PID.TID 0000.0001)  K= 11.0  ;  r=        57500.0  ;  phiRef/g=     4313.233
(PID.TID 0000.0001)  K= 11.5  ;  r=        55000.0  ;  phiRef/g=     4636.257
(PID.TID 0000.0001)  K= 12.0  ;  r=        52500.0  ;  phiRef/g=     4959.281
(PID.TID 0000.0001)  K= 12.5  ;  r=        50000.0  ;  phiRef/g=     5305.092
(PID.TID 0000.0001)  K= 13.0  ;  r=        47500.0  ;  phiRef/g=     5650.904
(PID.TID 0000.0001)  K= 13.5  ;  r=        45000.0  ;  phiRef/g=     6023.789
(PID.TID 0000.0001)  K= 14.0  ;  r=        42500.0  ;  phiRef/g=     6396.675
(PID.TID 0000.0001)  K= 14.5  ;  r=        40000.0  ;  phiRef/g=     6802.357
(PID.TID 0000.0001)  K= 15.0  ;  r=        37500.0  ;  phiRef/g=     7208.039
(PID.TID 0000.0001)  K= 15.5  ;  r=        35000.0  ;  phiRef/g=     7654.429
(PID.TID 0000.0001)  K= 16.0  ;  r=        32500.0  ;  phiRef/g=     8100.820
(PID.TID 0000.0001)  K= 16.5  ;  r=        30000.0  ;  phiRef/g=     8599.358
(PID.TID 0000.0001)  K= 17.0  ;  r=        27500.0  ;  phiRef/g=     9097.896
(PID.TID 0000.0001)  K= 17.5  ;  r=        25000.0  ;  phiRef/g=     9605.472
(PID.TID 0000.0001)  K= 18.0  ;  r=        23000.0  ;  phiRef/g=    10113.047
(PID.TID 0000.0001)  K= 18.5  ;  r=        21000.0  ;  phiRef/g=    10627.828
(PID.TID 0000.0001)  K= 19.0  ;  r=        19000.0  ;  phiRef/g=    11142.609
(PID.TID 0000.0001)  K= 19.5  ;  r=        17000.0  ;  phiRef/g=    11701.248
(PID.TID 0000.0001)  K= 20.0  ;  r=        15250.0  ;  phiRef/g=    12259.888
(PID.TID 0000.0001)  K= 20.5  ;  r=        13500.0  ;  phiRef/g=    12830.195
(PID.TID 0000.0001)  K= 21.0  ;  r=        12000.0  ;  phiRef/g=    13400.502
(PID.TID 0000.0001)  K= 21.5  ;  r=        10500.0  ;  phiRef/g=    13977.179
(PID.TID 0000.0001)  K= 22.0  ;  r=         9250.0  ;  phiRef/g=    14553.856
(PID.TID 0000.0001)  K= 22.5  ;  r=         8000.0  ;  phiRef/g=    15125.623
(PID.TID 0000.0001)  K= 23.0  ;  r=         7000.0  ;  phiRef/g=    15697.389
(PID.TID 0000.0001)  K= 23.5  ;  r=         6000.0  ;  phiRef/g=    16241.692
(PID.TID 0000.0001)  K= 24.0  ;  r=         5250.0  ;  phiRef/g=    16785.996
(PID.TID 0000.0001)  K= 24.5  ;  r=         4500.0  ;  phiRef/g=    17303.328
(PID.TID 0000.0001)  K= 25.0  ;  r=         3900.0  ;  phiRef/g=    17820.661
(PID.TID 0000.0001)  K= 25.5  ;  r=         3300.0  ;  phiRef/g=    18294.361
(PID.TID 0000.0001)  K= 26.0  ;  r=         2900.0  ;  phiRef/g=    18768.061
(PID.TID 0000.0001)  K= 26.5  ;  r=         2500.0  ;  phiRef/g=    19191.215
(PID.TID 0000.0001)  K= 27.0  ;  r=         2175.0  ;  phiRef/g=    19614.368
(PID.TID 0000.0001)  K= 27.5  ;  r=         1850.0  ;  phiRef/g=    20029.207
(PID.TID 0000.0001)  K= 28.0  ;  r=         1600.0  ;  phiRef/g=    20444.046
(PID.TID 0000.0001)  K= 28.5  ;  r=         1350.0  ;  phiRef/g=    20826.069
(PID.TID 0000.0001)  K= 29.0  ;  r=         1175.0  ;  phiRef/g=    21208.093
(PID.TID 0000.0001)  K= 29.5  ;  r=         1000.0  ;  phiRef/g=    21542.730
(PID.TID 0000.0001)  K= 30.0  ;  r=          875.0  ;  phiRef/g=    21877.367
(PID.TID 0000.0001)  K= 30.5  ;  r=          750.0  ;  phiRef/g=    22187.423
(PID.TID 0000.0001)  K= 31.0  ;  r=          650.0  ;  phiRef/g=    22497.480
(PID.TID 0000.0001)  K= 31.5  ;  r=          550.0  ;  phiRef/g=    22797.317
(PID.TID 0000.0001)  K= 32.0  ;  r=          475.0  ;  phiRef/g=    23097.154
(PID.TID 0000.0001)  K= 32.5  ;  r=          400.0  ;  phiRef/g=    23394.664
(PID.TID 0000.0001)  K= 33.0  ;  r=          337.5  ;  phiRef/g=    23692.174
(PID.TID 0000.0001)  K= 33.5  ;  r=          275.0  ;  phiRef/g=    24009.466
(PID.TID 0000.0001)  K= 34.0  ;  r=          225.0  ;  phiRef/g=    24326.758
(PID.TID 0000.0001)  K= 34.5  ;  r=          175.0  ;  phiRef/g=    24665.834
(PID.TID 0000.0001)  K= 35.0  ;  r=          137.5  ;  phiRef/g=    25004.909
(PID.TID 0000.0001)  K= 35.5  ;  r=          100.0  ;  phiRef/g=    25361.775
(PID.TID 0000.0001)  K= 36.0  ;  r=           75.0  ;  phiRef/g=    25718.641
(PID.TID 0000.0001)  K= 36.5  ;  r=           50.0  ;  phiRef/g=    26057.733
(PID.TID 0000.0001)  K= 37.0  ;  r=           37.5  ;  phiRef/g=    26396.825
(PID.TID 0000.0001)  K= 37.5  ;  r=           25.0  ;  phiRef/g=    26699.785
(PID.TID 0000.0001)  K= 38.0  ;  r=           17.5  ;  phiRef/g=    27002.745
(PID.TID 0000.0001)  K= 38.5  ;  r=           10.0  ;  phiRef/g=    27289.581
(PID.TID 0000.0001)  K= 39.0  ;  r=            7.0  ;  phiRef/g=    27576.416
(PID.TID 0000.0001)  K= 39.5  ;  r=            4.0  ;  phiRef/g=    27820.688
(PID.TID 0000.0001)  K= 40.0  ;  r=            2.5  ;  phiRef/g=    28064.960
(PID.TID 0000.0001)  K= 40.5  ;  r=            1.0  ;  phiRef/g=    28393.967
(PID.TID 0000.0001) // =======================================================
(PID.TID 0000.0001) // Field Model R_low (ini_masks_etc)
(PID.TID 0000.0001) // CMIN =          1.000000000000000E+00
(PID.TID 0000.0001) // CMAX =          1.000000000000000E+00
(PID.TID 0000.0001) // CINT =          0.000000000000000E+00
(PID.TID 0000.0001) // SYMBOLS (CMIN->CMAX): -abcdefghijklmnopqrstuvwxyz+
(PID.TID 0000.0001) //                  0.0: .
(PID.TID 0000.0001) // RANGE I (Lo:Hi:Step):(    -3:   196:     1)
(PID.TID 0000.0001) // RANGE J (Lo:Hi:Step):(    36:    -3:    -1)
(PID.TID 0000.0001) // RANGE K (Lo:Hi:Step):(   1:   1:   1)
(PID.TID 0000.0001) // =======================================================
(PID.TID 0000.0001) // =======================================================
(PID.TID 0000.0001) // END OF FIELD                                          =
(PID.TID 0000.0001) // =======================================================
(PID.TID 0000.0001) 
(PID.TID 0000.0001) // =======================================================
(PID.TID 0000.0001) // Field Model Ro_surf (ini_masks_etc)
(PID.TID 0000.0001) // CMIN =          1.000000000000000E+05
(PID.TID 0000.0001) // CMAX =          1.000000000000000E+05
(PID.TID 0000.0001) // CINT =          0.000000000000000E+00
(PID.TID 0000.0001) // SYMBOLS (CMIN->CMAX): -abcdefghijklmnopqrstuvwxyz+
(PID.TID 0000.0001) //                  0.0: .
(PID.TID 0000.0001) // RANGE I (Lo:Hi:Step):(    -3:   196:     1)
(PID.TID 0000.0001) // RANGE J (Lo:Hi:Step):(    36:    -3:    -1)
(PID.TID 0000.0001) // RANGE K (Lo:Hi:Step):(   1:   1:   1)
(PID.TID 0000.0001) // =======================================================
(PID.TID 0000.0001) // =======================================================
(PID.TID 0000.0001) // END OF FIELD                                          =
(PID.TID 0000.0001) // =======================================================
(PID.TID 0000.0001) 
(PID.TID 0000.0001) // =======================================================
(PID.TID 0000.0001) // Field hFacC at iteration          0
(PID.TID 0000.0001) // CMIN =          1.000000000000000E+00
(PID.TID 0000.0001) // CMAX =          1.000000000000000E+00
(PID.TID 0000.0001) // CINT =          0.000000000000000E+00
(PID.TID 0000.0001) // SYMBOLS (CMIN->CMAX): -abcdefghijklmnopqrstuvwxyz+
(PID.TID 0000.0001) //                  0.0: .
(PID.TID 0000.0001) // RANGE I (Lo:Hi:Step):(    -3:   196:     1)
(PID.TID 0000.0001) // RANGE J (Lo:Hi:Step):(    36:    -3:    -1)
(PID.TID 0000.0001) // RANGE K (Lo:Hi:Step):(   1:   1:   1)
(PID.TID 0000.0001) // =======================================================
(PID.TID 0000.0001) // =======================================================
(PID.TID 0000.0001) // END OF FIELD                                          =
(PID.TID 0000.0001) // =======================================================
(PID.TID 0000.0001) 
(PID.TID 0000.0001) // =======================================================
(PID.TID 0000.0001) // Field hFacW at iteration          0
(PID.TID 0000.0001) // CMIN =          1.000000000000000E+00
(PID.TID 0000.0001) // CMAX =          1.000000000000000E+00
(PID.TID 0000.0001) // CINT =          0.000000000000000E+00
(PID.TID 0000.0001) // SYMBOLS (CMIN->CMAX): -abcdefghijklmnopqrstuvwxyz+
(PID.TID 0000.0001) //                  0.0: .
(PID.TID 0000.0001) // RANGE I (Lo:Hi:Step):(    -3:   196:     1)
(PID.TID 0000.0001) // RANGE J (Lo:Hi:Step):(    36:    -3:    -1)
(PID.TID 0000.0001) // RANGE K (Lo:Hi:Step):(   1:   1:   1)
(PID.TID 0000.0001) // =======================================================
(PID.TID 0000.0001) // =======================================================
(PID.TID 0000.0001) // END OF FIELD                                          =
(PID.TID 0000.0001) // =======================================================
(PID.TID 0000.0001) 
(PID.TID 0000.0001) // =======================================================
(PID.TID 0000.0001) // Field hFacS at iteration          0
(PID.TID 0000.0001) // CMIN =          1.000000000000000E+00
(PID.TID 0000.0001) // CMAX =          1.000000000000000E+00
(PID.TID 0000.0001) // CINT =          0.000000000000000E+00
(PID.TID 0000.0001) // SYMBOLS (CMIN->CMAX): -abcdefghijklmnopqrstuvwxyz+
(PID.TID 0000.0001) //                  0.0: .
(PID.TID 0000.0001) // RANGE I (Lo:Hi:Step):(    -3:   196:     1)
(PID.TID 0000.0001) // RANGE J (Lo:Hi:Step):(    36:    -3:    -1)
(PID.TID 0000.0001) // RANGE K (Lo:Hi:Step):(   1:   1:   1)
(PID.TID 0000.0001) // =======================================================
(PID.TID 0000.0001) // =======================================================
(PID.TID 0000.0001) // END OF FIELD                                          =
(PID.TID 0000.0001) // =======================================================
(PID.TID 0000.0001) 
(PID.TID 0000.0001) GAD_INIT_FIXED: GAD_OlMinSize=  2  0  2
(PID.TID 0000.0001) 
(PID.TID 0000.0001) // ===================================
(PID.TID 0000.0001) // GAD parameters :
(PID.TID 0000.0001) // ===================================
(PID.TID 0000.0001) tempAdvScheme =   /* Temp. Horiz.Advection scheme selector */
(PID.TID 0000.0001)                       2
(PID.TID 0000.0001)     ;
(PID.TID 0000.0001) tempVertAdvScheme =   /* Temp. Vert. Advection scheme selector */
(PID.TID 0000.0001)                       2
(PID.TID 0000.0001)     ;
(PID.TID 0000.0001) tempMultiDimAdvec =   /* use Muti-Dim Advec method for Temp */
(PID.TID 0000.0001)                   F
(PID.TID 0000.0001)     ;
(PID.TID 0000.0001) tempSOM_Advection = /* use 2nd Order Moment Advection for Temp */
(PID.TID 0000.0001)                   F
(PID.TID 0000.0001)     ;
(PID.TID 0000.0001) AdamsBashforthGt = /* apply Adams-Bashforth extrapolation on Gt */
(PID.TID 0000.0001)                   T
(PID.TID 0000.0001)     ;
(PID.TID 0000.0001) AdamsBashforth_T = /* apply Adams-Bashforth extrapolation on Temp */
(PID.TID 0000.0001)                   F
(PID.TID 0000.0001)     ;
(PID.TID 0000.0001) saltAdvScheme =   /* Salt. Horiz.advection scheme selector */
(PID.TID 0000.0001)                      77
(PID.TID 0000.0001)     ;
(PID.TID 0000.0001) saltVertAdvScheme =   /* Salt. Vert. Advection scheme selector */
(PID.TID 0000.0001)                      77
(PID.TID 0000.0001)     ;
(PID.TID 0000.0001) saltMultiDimAdvec =   /* use Muti-Dim Advec method for Salt */
(PID.TID 0000.0001)                   T
(PID.TID 0000.0001)     ;
(PID.TID 0000.0001) saltSOM_Advection = /* use 2nd Order Moment Advection for Salt */
(PID.TID 0000.0001)                   F
(PID.TID 0000.0001)     ;
(PID.TID 0000.0001) AdamsBashforthGs = /* apply Adams-Bashforth extrapolation on Gs */
(PID.TID 0000.0001)                   F
(PID.TID 0000.0001)     ;
(PID.TID 0000.0001) AdamsBashforth_S = /* apply Adams-Bashforth extrapolation on Salt */
(PID.TID 0000.0001)                   F
(PID.TID 0000.0001)     ;
(PID.TID 0000.0001) // ===================================
(PID.TID 0000.0001) ATM_PHYS_INIT_FIXED: opening data.atm_gray
(PID.TID 0000.0001)  OPEN_COPY_DATA_FILE: opening file data.atm_gray
(PID.TID 0000.0001) // =======================================================
(PID.TID 0000.0001) // Parameter file "data.atm_gray"
(PID.TID 0000.0001) // =======================================================
(PID.TID 0000.0001) >
(PID.TID 0000.0001) > &atmosphere_nml
(PID.TID 0000.0001) >    turb = .TRUE.,
(PID.TID 0000.0001) >    ldry_convection = .false.,
(PID.TID 0000.0001) >    lwet_convection = .TRUE.,
(PID.TID 0000.0001) >    do_virtual = .false.,
(PID.TID 0000.0001) >    two_stream = .true.,
(PID.TID 0000.0001) >    mixed_layer_bc = .false.,
(PID.TID 0000.0001) >    roughness_heat = 0.05,
(PID.TID 0000.0001) >    roughness_moist = 0.05,
(PID.TID 0000.0001) >    roughness_mom = 0.05,
(PID.TID 0000.0001) > /
(PID.TID 0000.0001) >
(PID.TID 0000.0001) > &radiation_nml
(PID.TID 0000.0001) ># solar_constant= 1365.,
(PID.TID 0000.0001) ># del_sol=1.,
(PID.TID 0000.0001) ># ir_tau_eq=
(PID.TID 0000.0001) ># ir_tau_pole=
(PID.TID 0000.0001) ># atm_abs = 0.,
(PID.TID 0000.0001) ># sw_diff=
(PID.TID 0000.0001) ># linear_tau=
(PID.TID 0000.0001) ># del_sw=
(PID.TID 0000.0001) ># albedo_value=0.38,
(PID.TID 0000.0001) ># window=
(PID.TID 0000.0001) >  select_incSW = 1,
(PID.TID 0000.0001) >  albedo_value=0.4,
(PID.TID 0000.0001) >  solar_exponent=0.,
(PID.TID 0000.0001) >  wv_exponent = -1.,
(PID.TID 0000.0001) >  ozone_in_SW = 1,
(PID.TID 0000.0001) >  two_stream_SW = 1,
(PID.TID 0000.0001) > /
(PID.TID 0000.0001) >
(PID.TID 0000.0001) > &lscale_cond_nml
(PID.TID 0000.0001) ># hc =
(PID.TID 0000.0001) ># do_evap=
(PID.TID 0000.0001) > /
(PID.TID 0000.0001) >
(PID.TID 0000.0001) > &dargan_bettsmiller_nml
(PID.TID 0000.0001) >#-- default:
(PID.TID 0000.0001) >#   tau_bm = 7200.,
(PID.TID 0000.0001) >#   rhbm   = 0.8,
(PID.TID 0000.0001) >#   do_virtual   = .FALSE.,
(PID.TID 0000.0001) >#   do_shallower = .FALSE.,
(PID.TID 0000.0001) >#   do_changeqref= .FALSE.,
(PID.TID 0000.0001) >#   do_envsat    = .FALSE.,
(PID.TID 0000.0001) >#   do_taucape   = .FALSE.,
(PID.TID 0000.0001) >#     capetaubm  = 900.,
(PID.TID 0000.0001) >#     tau_min    = 2400.,
(PID.TID 0000.0001) >#   do_bm_shift  = .FALSE.,
(PID.TID 0000.0001) >#-- POG choice:
(PID.TID 0000.0001) >#  rhbm = 0.7,
(PID.TID 0000.0001) >   do_virtual= .TRUE.,
(PID.TID 0000.0001) >   do_shallower= .TRUE.,
(PID.TID 0000.0001) > /
(PID.TID 0000.0001) >
(PID.TID 0000.0001) > &surface_flux_nml
(PID.TID 0000.0001) > /
(PID.TID 0000.0001) >
(PID.TID 0000.0001) > &vert_turb_driver_nml
(PID.TID 0000.0001) >#  do_shallow_conv, do_mellor_yamada,
(PID.TID 0000.0001) >#  gust_scheme, constant_gust, use_tau,
(PID.TID 0000.0001) >#  do_molecular_diffusion
(PID.TID 0000.0001) >  do_mellor_yamada=.FALSE.,
(PID.TID 0000.0001) > /
(PID.TID 0000.0001) >
(PID.TID 0000.0001) > &diffusivity_nml
(PID.TID 0000.0001) >#  fixed_depth, depth_0, frac_inner,
(PID.TID 0000.0001) >#  rich_crit_pbl, entr_ratio, parcel_buoy,
(PID.TID 0000.0001) >#  znom, free_atm_diff, free_atm_skyhi_diff,
(PID.TID 0000.0001) >#  pbl_mcm, rich_crit_diff, mix_len, rich_prandtl,
(PID.TID 0000.0001) >#  background_m, background_t, ampns, ampns_max,
(PID.TID 0000.0001) >#  do_virtual_non_mcm
(PID.TID 0000.0001) > /
(PID.TID 0000.0001) >
(PID.TID 0000.0001) > &monin_obukhov_nml
(PID.TID 0000.0001) > /
(PID.TID 0000.0001) >
(PID.TID 0000.0001) > &my25_turb_nml
(PID.TID 0000.0001) > /
(PID.TID 0000.0001) >
(PID.TID 0000.0001) > &shallow_conv_nml
(PID.TID 0000.0001) > /
(PID.TID 0000.0001) >
(PID.TID 0000.0001) > &mixed_layer_nml
(PID.TID 0000.0001) ># evaporation, qflux_amp, depth, qflux_width
(PID.TID 0000.0001) >  depth=50.,
(PID.TID 0000.0001) > /
(PID.TID 0000.0001) >
(PID.TID 0000.0001) 
(PID.TID 0000.0001) ATM_PHYS_INIT_FIXED: finished reading data.atm_gray
(PID.TID 0000.0001) MIXED_LAYER_INIT: opening data.atm_gray
(PID.TID 0000.0001)  OPEN_COPY_DATA_FILE: opening file data.atm_gray
(PID.TID 0000.0001) // =======================================================
(PID.TID 0000.0001) // Parameter file "data.atm_gray"
(PID.TID 0000.0001) // =======================================================
(PID.TID 0000.0001) >
(PID.TID 0000.0001) > &atmosphere_nml
(PID.TID 0000.0001) >    turb = .TRUE.,
(PID.TID 0000.0001) >    ldry_convection = .false.,
(PID.TID 0000.0001) >    lwet_convection = .TRUE.,
(PID.TID 0000.0001) >    do_virtual = .false.,
(PID.TID 0000.0001) >    two_stream = .true.,
(PID.TID 0000.0001) >    mixed_layer_bc = .false.,
(PID.TID 0000.0001) >    roughness_heat = 0.05,
(PID.TID 0000.0001) >    roughness_moist = 0.05,
(PID.TID 0000.0001) >    roughness_mom = 0.05,
(PID.TID 0000.0001) > /
(PID.TID 0000.0001) >
(PID.TID 0000.0001) > &radiation_nml
(PID.TID 0000.0001) ># solar_constant= 1365.,
(PID.TID 0000.0001) ># del_sol=1.,
(PID.TID 0000.0001) ># ir_tau_eq=
(PID.TID 0000.0001) ># ir_tau_pole=
(PID.TID 0000.0001) ># atm_abs = 0.,
(PID.TID 0000.0001) ># sw_diff=
(PID.TID 0000.0001) ># linear_tau=
(PID.TID 0000.0001) ># del_sw=
(PID.TID 0000.0001) ># albedo_value=0.38,
(PID.TID 0000.0001) ># window=
(PID.TID 0000.0001) >  select_incSW = 1,
(PID.TID 0000.0001) >  albedo_value=0.4,
(PID.TID 0000.0001) >  solar_exponent=0.,
(PID.TID 0000.0001) >  wv_exponent = -1.,
(PID.TID 0000.0001) >  ozone_in_SW = 1,
(PID.TID 0000.0001) >  two_stream_SW = 1,
(PID.TID 0000.0001) > /
(PID.TID 0000.0001) >
(PID.TID 0000.0001) > &lscale_cond_nml
(PID.TID 0000.0001) ># hc =
(PID.TID 0000.0001) ># do_evap=
(PID.TID 0000.0001) > /
(PID.TID 0000.0001) >
(PID.TID 0000.0001) > &dargan_bettsmiller_nml
(PID.TID 0000.0001) >#-- default:
(PID.TID 0000.0001) >#   tau_bm = 7200.,
(PID.TID 0000.0001) >#   rhbm   = 0.8,
(PID.TID 0000.0001) >#   do_virtual   = .FALSE.,
(PID.TID 0000.0001) >#   do_shallower = .FALSE.,
(PID.TID 0000.0001) >#   do_changeqref= .FALSE.,
(PID.TID 0000.0001) >#   do_envsat    = .FALSE.,
(PID.TID 0000.0001) >#   do_taucape   = .FALSE.,
(PID.TID 0000.0001) >#     capetaubm  = 900.,
(PID.TID 0000.0001) >#     tau_min    = 2400.,
(PID.TID 0000.0001) >#   do_bm_shift  = .FALSE.,
(PID.TID 0000.0001) >#-- POG choice:
(PID.TID 0000.0001) >#  rhbm = 0.7,
(PID.TID 0000.0001) >   do_virtual= .TRUE.,
(PID.TID 0000.0001) >   do_shallower= .TRUE.,
(PID.TID 0000.0001) > /
(PID.TID 0000.0001) >
(PID.TID 0000.0001) > &surface_flux_nml
(PID.TID 0000.0001) > /
(PID.TID 0000.0001) >
(PID.TID 0000.0001) > &vert_turb_driver_nml
(PID.TID 0000.0001) >#  do_shallow_conv, do_mellor_yamada,
(PID.TID 0000.0001) >#  gust_scheme, constant_gust, use_tau,
(PID.TID 0000.0001) >#  do_molecular_diffusion
(PID.TID 0000.0001) >  do_mellor_yamada=.FALSE.,
(PID.TID 0000.0001) > /
(PID.TID 0000.0001) >
(PID.TID 0000.0001) > &diffusivity_nml
(PID.TID 0000.0001) >#  fixed_depth, depth_0, frac_inner,
(PID.TID 0000.0001) >#  rich_crit_pbl, entr_ratio, parcel_buoy,
(PID.TID 0000.0001) >#  znom, free_atm_diff, free_atm_skyhi_diff,
(PID.TID 0000.0001) >#  pbl_mcm, rich_crit_diff, mix_len, rich_prandtl,
(PID.TID 0000.0001) >#  background_m, background_t, ampns, ampns_max,
(PID.TID 0000.0001) >#  do_virtual_non_mcm
(PID.TID 0000.0001) > /
(PID.TID 0000.0001) >
(PID.TID 0000.0001) > &monin_obukhov_nml
(PID.TID 0000.0001) > /
(PID.TID 0000.0001) >
(PID.TID 0000.0001) > &my25_turb_nml
(PID.TID 0000.0001) > /
(PID.TID 0000.0001) >
(PID.TID 0000.0001) > &shallow_conv_nml
(PID.TID 0000.0001) > /
(PID.TID 0000.0001) >
(PID.TID 0000.0001) > &mixed_layer_nml
(PID.TID 0000.0001) ># evaporation, qflux_amp, depth, qflux_width
(PID.TID 0000.0001) >  depth=50.,
(PID.TID 0000.0001) > /
(PID.TID 0000.0001) >
(PID.TID 0000.0001) 
(PID.TID 0000.0001) MIXED_LAYER_INIT: finished reading data.atm_gray
(PID.TID 0000.0001) LSCALE_COND_INIT: opening data.atm_gray
(PID.TID 0000.0001)  OPEN_COPY_DATA_FILE: opening file data.atm_gray
(PID.TID 0000.0001) // =======================================================
(PID.TID 0000.0001) // Parameter file "data.atm_gray"
(PID.TID 0000.0001) // =======================================================
(PID.TID 0000.0001) >
(PID.TID 0000.0001) > &atmosphere_nml
(PID.TID 0000.0001) >    turb = .TRUE.,
(PID.TID 0000.0001) >    ldry_convection = .false.,
(PID.TID 0000.0001) >    lwet_convection = .TRUE.,
(PID.TID 0000.0001) >    do_virtual = .false.,
(PID.TID 0000.0001) >    two_stream = .true.,
(PID.TID 0000.0001) >    mixed_layer_bc = .false.,
(PID.TID 0000.0001) >    roughness_heat = 0.05,
(PID.TID 0000.0001) >    roughness_moist = 0.05,
(PID.TID 0000.0001) >    roughness_mom = 0.05,
(PID.TID 0000.0001) > /
(PID.TID 0000.0001) >
(PID.TID 0000.0001) > &radiation_nml
(PID.TID 0000.0001) ># solar_constant= 1365.,
(PID.TID 0000.0001) ># del_sol=1.,
(PID.TID 0000.0001) ># ir_tau_eq=
(PID.TID 0000.0001) ># ir_tau_pole=
(PID.TID 0000.0001) ># atm_abs = 0.,
(PID.TID 0000.0001) ># sw_diff=
(PID.TID 0000.0001) ># linear_tau=
(PID.TID 0000.0001) ># del_sw=
(PID.TID 0000.0001) ># albedo_value=0.38,
(PID.TID 0000.0001) ># window=
(PID.TID 0000.0001) >  select_incSW = 1,
(PID.TID 0000.0001) >  albedo_value=0.4,
(PID.TID 0000.0001) >  solar_exponent=0.,
(PID.TID 0000.0001) >  wv_exponent = -1.,
(PID.TID 0000.0001) >  ozone_in_SW = 1,
(PID.TID 0000.0001) >  two_stream_SW = 1,
(PID.TID 0000.0001) > /
(PID.TID 0000.0001) >
(PID.TID 0000.0001) > &lscale_cond_nml
(PID.TID 0000.0001) ># hc =
(PID.TID 0000.0001) ># do_evap=
(PID.TID 0000.0001) > /
(PID.TID 0000.0001) >
(PID.TID 0000.0001) > &dargan_bettsmiller_nml
(PID.TID 0000.0001) >#-- default:
(PID.TID 0000.0001) >#   tau_bm = 7200.,
(PID.TID 0000.0001) >#   rhbm   = 0.8,
(PID.TID 0000.0001) >#   do_virtual   = .FALSE.,
(PID.TID 0000.0001) >#   do_shallower = .FALSE.,
(PID.TID 0000.0001) >#   do_changeqref= .FALSE.,
(PID.TID 0000.0001) >#   do_envsat    = .FALSE.,
(PID.TID 0000.0001) >#   do_taucape   = .FALSE.,
(PID.TID 0000.0001) >#     capetaubm  = 900.,
(PID.TID 0000.0001) >#     tau_min    = 2400.,
(PID.TID 0000.0001) >#   do_bm_shift  = .FALSE.,
(PID.TID 0000.0001) >#-- POG choice:
(PID.TID 0000.0001) >#  rhbm = 0.7,
(PID.TID 0000.0001) >   do_virtual= .TRUE.,
(PID.TID 0000.0001) >   do_shallower= .TRUE.,
(PID.TID 0000.0001) > /
(PID.TID 0000.0001) >
(PID.TID 0000.0001) > &surface_flux_nml
(PID.TID 0000.0001) > /
(PID.TID 0000.0001) >
(PID.TID 0000.0001) > &vert_turb_driver_nml
(PID.TID 0000.0001) >#  do_shallow_conv, do_mellor_yamada,
(PID.TID 0000.0001) >#  gust_scheme, constant_gust, use_tau,
(PID.TID 0000.0001) >#  do_molecular_diffusion
(PID.TID 0000.0001) >  do_mellor_yamada=.FALSE.,
(PID.TID 0000.0001) > /
(PID.TID 0000.0001) >
(PID.TID 0000.0001) > &diffusivity_nml
(PID.TID 0000.0001) >#  fixed_depth, depth_0, frac_inner,
(PID.TID 0000.0001) >#  rich_crit_pbl, entr_ratio, parcel_buoy,
(PID.TID 0000.0001) >#  znom, free_atm_diff, free_atm_skyhi_diff,
(PID.TID 0000.0001) >#  pbl_mcm, rich_crit_diff, mix_len, rich_prandtl,
(PID.TID 0000.0001) >#  background_m, background_t, ampns, ampns_max,
(PID.TID 0000.0001) >#  do_virtual_non_mcm
(PID.TID 0000.0001) > /
(PID.TID 0000.0001) >
(PID.TID 0000.0001) > &monin_obukhov_nml
(PID.TID 0000.0001) > /
(PID.TID 0000.0001) >
(PID.TID 0000.0001) > &my25_turb_nml
(PID.TID 0000.0001) > /
(PID.TID 0000.0001) >
(PID.TID 0000.0001) > &shallow_conv_nml
(PID.TID 0000.0001) > /
(PID.TID 0000.0001) >
(PID.TID 0000.0001) > &mixed_layer_nml
(PID.TID 0000.0001) ># evaporation, qflux_amp, depth, qflux_width
(PID.TID 0000.0001) >  depth=50.,
(PID.TID 0000.0001) > /
(PID.TID 0000.0001) >
(PID.TID 0000.0001) 
(PID.TID 0000.0001) LSCALE_COND_INIT: finished reading data.atm_gray
(PID.TID 0000.0001) DARGAN_BETTSMILLER_init: opening data.atm_gray
(PID.TID 0000.0001)  OPEN_COPY_DATA_FILE: opening file data.atm_gray
(PID.TID 0000.0001) // =======================================================
(PID.TID 0000.0001) // Parameter file "data.atm_gray"
(PID.TID 0000.0001) // =======================================================
(PID.TID 0000.0001) >
(PID.TID 0000.0001) > &atmosphere_nml
(PID.TID 0000.0001) >    turb = .TRUE.,
(PID.TID 0000.0001) >    ldry_convection = .false.,
(PID.TID 0000.0001) >    lwet_convection = .TRUE.,
(PID.TID 0000.0001) >    do_virtual = .false.,
(PID.TID 0000.0001) >    two_stream = .true.,
(PID.TID 0000.0001) >    mixed_layer_bc = .false.,
(PID.TID 0000.0001) >    roughness_heat = 0.05,
(PID.TID 0000.0001) >    roughness_moist = 0.05,
(PID.TID 0000.0001) >    roughness_mom = 0.05,
(PID.TID 0000.0001) > /
(PID.TID 0000.0001) >
(PID.TID 0000.0001) > &radiation_nml
(PID.TID 0000.0001) ># solar_constant= 1365.,
(PID.TID 0000.0001) ># del_sol=1.,
(PID.TID 0000.0001) ># ir_tau_eq=
(PID.TID 0000.0001) ># ir_tau_pole=
(PID.TID 0000.0001) ># atm_abs = 0.,
(PID.TID 0000.0001) ># sw_diff=
(PID.TID 0000.0001) ># linear_tau=
(PID.TID 0000.0001) ># del_sw=
(PID.TID 0000.0001) ># albedo_value=0.38,
(PID.TID 0000.0001) ># window=
(PID.TID 0000.0001) >  select_incSW = 1,
(PID.TID 0000.0001) >  albedo_value=0.4,
(PID.TID 0000.0001) >  solar_exponent=0.,
(PID.TID 0000.0001) >  wv_exponent = -1.,
(PID.TID 0000.0001) >  ozone_in_SW = 1,
(PID.TID 0000.0001) >  two_stream_SW = 1,
(PID.TID 0000.0001) > /
(PID.TID 0000.0001) >
(PID.TID 0000.0001) > &lscale_cond_nml
(PID.TID 0000.0001) ># hc =
(PID.TID 0000.0001) ># do_evap=
(PID.TID 0000.0001) > /
(PID.TID 0000.0001) >
(PID.TID 0000.0001) > &dargan_bettsmiller_nml
(PID.TID 0000.0001) >#-- default:
(PID.TID 0000.0001) >#   tau_bm = 7200.,
(PID.TID 0000.0001) >#   rhbm   = 0.8,
(PID.TID 0000.0001) >#   do_virtual   = .FALSE.,
(PID.TID 0000.0001) >#   do_shallower = .FALSE.,
(PID.TID 0000.0001) >#   do_changeqref= .FALSE.,
(PID.TID 0000.0001) >#   do_envsat    = .FALSE.,
(PID.TID 0000.0001) >#   do_taucape   = .FALSE.,
(PID.TID 0000.0001) >#     capetaubm  = 900.,
(PID.TID 0000.0001) >#     tau_min    = 2400.,
(PID.TID 0000.0001) >#   do_bm_shift  = .FALSE.,
(PID.TID 0000.0001) >#-- POG choice:
(PID.TID 0000.0001) >#  rhbm = 0.7,
(PID.TID 0000.0001) >   do_virtual= .TRUE.,
(PID.TID 0000.0001) >   do_shallower= .TRUE.,
(PID.TID 0000.0001) > /
(PID.TID 0000.0001) >
(PID.TID 0000.0001) > &surface_flux_nml
(PID.TID 0000.0001) > /
(PID.TID 0000.0001) >
(PID.TID 0000.0001) > &vert_turb_driver_nml
(PID.TID 0000.0001) >#  do_shallow_conv, do_mellor_yamada,
(PID.TID 0000.0001) >#  gust_scheme, constant_gust, use_tau,
(PID.TID 0000.0001) >#  do_molecular_diffusion
(PID.TID 0000.0001) >  do_mellor_yamada=.FALSE.,
(PID.TID 0000.0001) > /
(PID.TID 0000.0001) >
(PID.TID 0000.0001) > &diffusivity_nml
(PID.TID 0000.0001) >#  fixed_depth, depth_0, frac_inner,
(PID.TID 0000.0001) >#  rich_crit_pbl, entr_ratio, parcel_buoy,
(PID.TID 0000.0001) >#  znom, free_atm_diff, free_atm_skyhi_diff,
(PID.TID 0000.0001) >#  pbl_mcm, rich_crit_diff, mix_len, rich_prandtl,
(PID.TID 0000.0001) >#  background_m, background_t, ampns, ampns_max,
(PID.TID 0000.0001) >#  do_virtual_non_mcm
(PID.TID 0000.0001) > /
(PID.TID 0000.0001) >
(PID.TID 0000.0001) > &monin_obukhov_nml
(PID.TID 0000.0001) > /
(PID.TID 0000.0001) >
(PID.TID 0000.0001) > &my25_turb_nml
(PID.TID 0000.0001) > /
(PID.TID 0000.0001) >
(PID.TID 0000.0001) > &shallow_conv_nml
(PID.TID 0000.0001) > /
(PID.TID 0000.0001) >
(PID.TID 0000.0001) > &mixed_layer_nml
(PID.TID 0000.0001) ># evaporation, qflux_amp, depth, qflux_width
(PID.TID 0000.0001) >  depth=50.,
(PID.TID 0000.0001) > /
(PID.TID 0000.0001) >
(PID.TID 0000.0001) 
(PID.TID 0000.0001) DARGAB_BETTSMILLER_INIT: finished reading data.atm_gray
(PID.TID 0000.0001) RADIATION_INIT: opening data.atm_gray
(PID.TID 0000.0001)  OPEN_COPY_DATA_FILE: opening file data.atm_gray
(PID.TID 0000.0001) // =======================================================
(PID.TID 0000.0001) // Parameter file "data.atm_gray"
(PID.TID 0000.0001) // =======================================================
(PID.TID 0000.0001) >
(PID.TID 0000.0001) > &atmosphere_nml
(PID.TID 0000.0001) >    turb = .TRUE.,
(PID.TID 0000.0001) >    ldry_convection = .false.,
(PID.TID 0000.0001) >    lwet_convection = .TRUE.,
(PID.TID 0000.0001) >    do_virtual = .false.,
(PID.TID 0000.0001) >    two_stream = .true.,
(PID.TID 0000.0001) >    mixed_layer_bc = .false.,
(PID.TID 0000.0001) >    roughness_heat = 0.05,
(PID.TID 0000.0001) >    roughness_moist = 0.05,
(PID.TID 0000.0001) >    roughness_mom = 0.05,
(PID.TID 0000.0001) > /
(PID.TID 0000.0001) >
(PID.TID 0000.0001) > &radiation_nml
(PID.TID 0000.0001) ># solar_constant= 1365.,
(PID.TID 0000.0001) ># del_sol=1.,
(PID.TID 0000.0001) ># ir_tau_eq=
(PID.TID 0000.0001) ># ir_tau_pole=
(PID.TID 0000.0001) ># atm_abs = 0.,
(PID.TID 0000.0001) ># sw_diff=
(PID.TID 0000.0001) ># linear_tau=
(PID.TID 0000.0001) ># del_sw=
(PID.TID 0000.0001) ># albedo_value=0.38,
(PID.TID 0000.0001) ># window=
(PID.TID 0000.0001) >  select_incSW = 1,
(PID.TID 0000.0001) >  albedo_value=0.4,
(PID.TID 0000.0001) >  solar_exponent=0.,
(PID.TID 0000.0001) >  wv_exponent = -1.,
(PID.TID 0000.0001) >  ozone_in_SW = 1,
(PID.TID 0000.0001) >  two_stream_SW = 1,
(PID.TID 0000.0001) > /
(PID.TID 0000.0001) >
(PID.TID 0000.0001) > &lscale_cond_nml
(PID.TID 0000.0001) ># hc =
(PID.TID 0000.0001) ># do_evap=
(PID.TID 0000.0001) > /
(PID.TID 0000.0001) >
(PID.TID 0000.0001) > &dargan_bettsmiller_nml
(PID.TID 0000.0001) >#-- default:
(PID.TID 0000.0001) >#   tau_bm = 7200.,
(PID.TID 0000.0001) >#   rhbm   = 0.8,
(PID.TID 0000.0001) >#   do_virtual   = .FALSE.,
(PID.TID 0000.0001) >#   do_shallower = .FALSE.,
(PID.TID 0000.0001) >#   do_changeqref= .FALSE.,
(PID.TID 0000.0001) >#   do_envsat    = .FALSE.,
(PID.TID 0000.0001) >#   do_taucape   = .FALSE.,
(PID.TID 0000.0001) >#     capetaubm  = 900.,
(PID.TID 0000.0001) >#     tau_min    = 2400.,
(PID.TID 0000.0001) >#   do_bm_shift  = .FALSE.,
(PID.TID 0000.0001) >#-- POG choice:
(PID.TID 0000.0001) >#  rhbm = 0.7,
(PID.TID 0000.0001) >   do_virtual= .TRUE.,
(PID.TID 0000.0001) >   do_shallower= .TRUE.,
(PID.TID 0000.0001) > /
(PID.TID 0000.0001) >
(PID.TID 0000.0001) > &surface_flux_nml
(PID.TID 0000.0001) > /
(PID.TID 0000.0001) >
(PID.TID 0000.0001) > &vert_turb_driver_nml
(PID.TID 0000.0001) >#  do_shallow_conv, do_mellor_yamada,
(PID.TID 0000.0001) >#  gust_scheme, constant_gust, use_tau,
(PID.TID 0000.0001) >#  do_molecular_diffusion
(PID.TID 0000.0001) >  do_mellor_yamada=.FALSE.,
(PID.TID 0000.0001) > /
(PID.TID 0000.0001) >
(PID.TID 0000.0001) > &diffusivity_nml
(PID.TID 0000.0001) >#  fixed_depth, depth_0, frac_inner,
(PID.TID 0000.0001) >#  rich_crit_pbl, entr_ratio, parcel_buoy,
(PID.TID 0000.0001) >#  znom, free_atm_diff, free_atm_skyhi_diff,
(PID.TID 0000.0001) >#  pbl_mcm, rich_crit_diff, mix_len, rich_prandtl,
(PID.TID 0000.0001) >#  background_m, background_t, ampns, ampns_max,
(PID.TID 0000.0001) >#  do_virtual_non_mcm
(PID.TID 0000.0001) > /
(PID.TID 0000.0001) >
(PID.TID 0000.0001) > &monin_obukhov_nml
(PID.TID 0000.0001) > /
(PID.TID 0000.0001) >
(PID.TID 0000.0001) > &my25_turb_nml
(PID.TID 0000.0001) > /
(PID.TID 0000.0001) >
(PID.TID 0000.0001) > &shallow_conv_nml
(PID.TID 0000.0001) > /
(PID.TID 0000.0001) >
(PID.TID 0000.0001) > &mixed_layer_nml
(PID.TID 0000.0001) ># evaporation, qflux_amp, depth, qflux_width
(PID.TID 0000.0001) >  depth=50.,
(PID.TID 0000.0001) > /
(PID.TID 0000.0001) >
(PID.TID 0000.0001) 
(PID.TID 0000.0001) RADIATION_INIT: finished reading data.atm_gray
(PID.TID 0000.0001) VERT_TURB_DRIVER_INIT: opening data.atm_gray
(PID.TID 0000.0001)  OPEN_COPY_DATA_FILE: opening file data.atm_gray
(PID.TID 0000.0001) // =======================================================
(PID.TID 0000.0001) // Parameter file "data.atm_gray"
(PID.TID 0000.0001) // =======================================================
(PID.TID 0000.0001) >
(PID.TID 0000.0001) > &atmosphere_nml
(PID.TID 0000.0001) >    turb = .TRUE.,
(PID.TID 0000.0001) >    ldry_convection = .false.,
(PID.TID 0000.0001) >    lwet_convection = .TRUE.,
(PID.TID 0000.0001) >    do_virtual = .false.,
(PID.TID 0000.0001) >    two_stream = .true.,
(PID.TID 0000.0001) >    mixed_layer_bc = .false.,
(PID.TID 0000.0001) >    roughness_heat = 0.05,
(PID.TID 0000.0001) >    roughness_moist = 0.05,
(PID.TID 0000.0001) >    roughness_mom = 0.05,
(PID.TID 0000.0001) > /
(PID.TID 0000.0001) >
(PID.TID 0000.0001) > &radiation_nml
(PID.TID 0000.0001) ># solar_constant= 1365.,
(PID.TID 0000.0001) ># del_sol=1.,
(PID.TID 0000.0001) ># ir_tau_eq=
(PID.TID 0000.0001) ># ir_tau_pole=
(PID.TID 0000.0001) ># atm_abs = 0.,
(PID.TID 0000.0001) ># sw_diff=
(PID.TID 0000.0001) ># linear_tau=
(PID.TID 0000.0001) ># del_sw=
(PID.TID 0000.0001) ># albedo_value=0.38,
(PID.TID 0000.0001) ># window=
(PID.TID 0000.0001) >  select_incSW = 1,
(PID.TID 0000.0001) >  albedo_value=0.4,
(PID.TID 0000.0001) >  solar_exponent=0.,
(PID.TID 0000.0001) >  wv_exponent = -1.,
(PID.TID 0000.0001) >  ozone_in_SW = 1,
(PID.TID 0000.0001) >  two_stream_SW = 1,
(PID.TID 0000.0001) > /
(PID.TID 0000.0001) >
(PID.TID 0000.0001) > &lscale_cond_nml
(PID.TID 0000.0001) ># hc =
(PID.TID 0000.0001) ># do_evap=
(PID.TID 0000.0001) > /
(PID.TID 0000.0001) >
(PID.TID 0000.0001) > &dargan_bettsmiller_nml
(PID.TID 0000.0001) >#-- default:
(PID.TID 0000.0001) >#   tau_bm = 7200.,
(PID.TID 0000.0001) >#   rhbm   = 0.8,
(PID.TID 0000.0001) >#   do_virtual   = .FALSE.,
(PID.TID 0000.0001) >#   do_shallower = .FALSE.,
(PID.TID 0000.0001) >#   do_changeqref= .FALSE.,
(PID.TID 0000.0001) >#   do_envsat    = .FALSE.,
(PID.TID 0000.0001) >#   do_taucape   = .FALSE.,
(PID.TID 0000.0001) >#     capetaubm  = 900.,
(PID.TID 0000.0001) >#     tau_min    = 2400.,
(PID.TID 0000.0001) >#   do_bm_shift  = .FALSE.,
(PID.TID 0000.0001) >#-- POG choice:
(PID.TID 0000.0001) >#  rhbm = 0.7,
(PID.TID 0000.0001) >   do_virtual= .TRUE.,
(PID.TID 0000.0001) >   do_shallower= .TRUE.,
(PID.TID 0000.0001) > /
(PID.TID 0000.0001) >
(PID.TID 0000.0001) > &surface_flux_nml
(PID.TID 0000.0001) > /
(PID.TID 0000.0001) >
(PID.TID 0000.0001) > &vert_turb_driver_nml
(PID.TID 0000.0001) >#  do_shallow_conv, do_mellor_yamada,
(PID.TID 0000.0001) >#  gust_scheme, constant_gust, use_tau,
(PID.TID 0000.0001) >#  do_molecular_diffusion
(PID.TID 0000.0001) >  do_mellor_yamada=.FALSE.,
(PID.TID 0000.0001) > /
(PID.TID 0000.0001) >
(PID.TID 0000.0001) > &diffusivity_nml
(PID.TID 0000.0001) >#  fixed_depth, depth_0, frac_inner,
(PID.TID 0000.0001) >#  rich_crit_pbl, entr_ratio, parcel_buoy,
(PID.TID 0000.0001) >#  znom, free_atm_diff, free_atm_skyhi_diff,
(PID.TID 0000.0001) >#  pbl_mcm, rich_crit_diff, mix_len, rich_prandtl,
(PID.TID 0000.0001) >#  background_m, background_t, ampns, ampns_max,
(PID.TID 0000.0001) >#  do_virtual_non_mcm
(PID.TID 0000.0001) > /
(PID.TID 0000.0001) >
(PID.TID 0000.0001) > &monin_obukhov_nml
(PID.TID 0000.0001) > /
(PID.TID 0000.0001) >
(PID.TID 0000.0001) > &my25_turb_nml
(PID.TID 0000.0001) > /
(PID.TID 0000.0001) >
(PID.TID 0000.0001) > &shallow_conv_nml
(PID.TID 0000.0001) > /
(PID.TID 0000.0001) >
(PID.TID 0000.0001) > &mixed_layer_nml
(PID.TID 0000.0001) ># evaporation, qflux_amp, depth, qflux_width
(PID.TID 0000.0001) >  depth=50.,
(PID.TID 0000.0001) > /
(PID.TID 0000.0001) >
(PID.TID 0000.0001) 
(PID.TID 0000.0001) VERT_TURB_DRIVER_INIT: finished reading data.atm_gray
(PID.TID 0000.0001)  MDS_READ_FIELD: opening global file: Qflux_diagnosed.bin
(PID.TID 0000.0001)  MDS_READ_FIELD: opening global file: ape_ozone_in.bin
(PID.TID 0000.0001) ------------------------------------------------------------
(PID.TID 0000.0001) DIAGNOSTICS_SET_LEVELS: done
(PID.TID 0000.0001)  Total Nb of available Diagnostics: ndiagt=   229
(PID.TID 0000.0001)  write list of available Diagnostics to file: available_diagnostics.log
(PID.TID 0000.0001) SETDIAG: Allocate  1 x  1 Levels for Diagnostic #    23 ETAN
(PID.TID 0000.0001) SETDIAG: Allocate  1 x  1 Levels for Diagnostic #    24 ETANSQ
(PID.TID 0000.0001) SETDIAG: Allocate  1 x  1 Levels for Diagnostic #    25 DETADT2
(PID.TID 0000.0001) SETDIAG: Allocate  1 x  1 Levels for Diagnostic #   199 AtPhCnvP
(PID.TID 0000.0001) SETDIAG: Allocate  1 x  1 Levels for Diagnostic #   200 AtPhLscP
(PID.TID 0000.0001) SETDIAG: Allocate  1 x  1 Levels for Diagnostic #   218 AtPhCAPE
(PID.TID 0000.0001) SETDIAG: Allocate  1 x  1 Levels for Diagnostic #   214 AtPhSens
(PID.TID 0000.0001) SETDIAG: Allocate  1 x  1 Levels for Diagnostic #   215 AtPhEvap
(PID.TID 0000.0001) SETDIAG: Allocate  1 x  1 Levels for Diagnostic #   216 AtPhTauX
(PID.TID 0000.0001) SETDIAG: Allocate  1 x  1 Levels for Diagnostic #   217 AtPhTauY
(PID.TID 0000.0001) SETDIAG: Allocate  1 x  1 Levels for Diagnostic #   192 AtPh_SST
(PID.TID 0000.0001) SETDIAG: Allocate  1 x  1 Levels for Diagnostic #   208 AtPhNTSR
(PID.TID 0000.0001) SETDIAG: Allocate  1 x  1 Levels for Diagnostic #   209 AtPhOLR
(PID.TID 0000.0001) SETDIAG: Allocate  1 x  1 Levels for Diagnostic #   211 AtPhNSSR
(PID.TID 0000.0001) SETDIAG: Allocate  1 x  1 Levels for Diagnostic #   212 AtPhDSLR
(PID.TID 0000.0001) SETDIAG: Allocate  1 x  1 Levels for Diagnostic #   213 AtPhUSLR
(PID.TID 0000.0001) SETDIAG: Allocate 40 x  1 Levels for Diagnostic #    29 UVEL
(PID.TID 0000.0001) SETDIAG: Allocate 40 x  1 Levels for Diagnostic #    30 VVEL
(PID.TID 0000.0001) SETDIAG: Allocate 40 x  1 Levels for Diagnostic #    31 WVEL
(PID.TID 0000.0001) SETDIAG: Allocate 40 x  1 Levels for Diagnostic #    26 THETA
(PID.TID 0000.0001) SETDIAG: Allocate 40 x  1 Levels for Diagnostic #    27 SALT
(PID.TID 0000.0001) SETDIAG: Allocate 40 x  1 Levels for Diagnostic #    34 UVELSQ
(PID.TID 0000.0001) SETDIAG: Allocate 40 x  1 Levels for Diagnostic #    35 VVELSQ
(PID.TID 0000.0001) SETDIAG: Allocate 40 x  1 Levels for Diagnostic #    36 WVELSQ
(PID.TID 0000.0001) SETDIAG: Allocate 40 x  1 Levels for Diagnostic #    32 THETASQ
(PID.TID 0000.0001) SETDIAG: Allocate 40 x  1 Levels for Diagnostic #    33 SALTSQ
(PID.TID 0000.0001) SETDIAG: Allocate 40 x  1 Levels for Diagnostic #    43 UVELMASS
(PID.TID 0000.0001) SETDIAG: Allocate 40 x  1 Levels for Diagnostic #    44 VVELMASS
(PID.TID 0000.0001) SETDIAG: Allocate 40 x  1 Levels for Diagnostic #    37 UE_VEL_C
(PID.TID 0000.0001) SETDIAG: Allocate 40 x  1 Levels for Diagnostic #    38 VN_VEL_C
(PID.TID 0000.0001) SETDIAG: Allocate 40 x  1 Levels for Diagnostic #    39 UV_VEL_C
(PID.TID 0000.0001) SETDIAG: Allocate 40 x  1 Levels for Diagnostic #    41 WU_VEL
(PID.TID 0000.0001) SETDIAG: Allocate 40 x  1 Levels for Diagnostic #    42 WV_VEL
(PID.TID 0000.0001) SETDIAG: Allocate 40 x  1 Levels for Diagnostic #    54 UVELTH
(PID.TID 0000.0001) SETDIAG: Allocate 40 x  1 Levels for Diagnostic #    55 VVELTH
(PID.TID 0000.0001) SETDIAG: Allocate 40 x  1 Levels for Diagnostic #    56 WVELTH
(PID.TID 0000.0001) SETDIAG: Allocate 40 x  1 Levels for Diagnostic #    28 RELHUM
(PID.TID 0000.0001) SETDIAG: Allocate 40 x  1 Levels for Diagnostic #   193 AtPhdTdt
(PID.TID 0000.0001) SETDIAG: Allocate 40 x  1 Levels for Diagnostic #   194 AtPhdQdt
(PID.TID 0000.0001) SETDIAG: Allocate 40 x  1 Levels for Diagnostic #   195 AtPhdUdt
(PID.TID 0000.0001) SETDIAG: Allocate 40 x  1 Levels for Diagnostic #   196 AtPhdVdt
(PID.TID 0000.0001) SETDIAG: Allocate 40 x  1 Levels for Diagnostic #   229 AtPhDisH
(PID.TID 0000.0001) SETDIAG: Allocate 40 x  1 Levels for Diagnostic #   100 HeatDiss
(PID.TID 0000.0001) SETDIAG: Allocate 40 x  1 Levels for Diagnostic #    99 MoistCor
(PID.TID 0000.0001) SETDIAG: Allocate 40 x  1 Levels for Diagnostic #   191 SHAP_dKE
(PID.TID 0000.0001) SETDIAG: Allocate 40 x  1 Levels for Diagnostic #   202 AtPhdTrd
(PID.TID 0000.0001) SETDIAG: Allocate 40 x  1 Levels for Diagnostic #   201 AtPhdTlc
(PID.TID 0000.0001) SETDIAG: Allocate 40 x  1 Levels for Diagnostic #   226 AtPhdTcv
(PID.TID 0000.0001) - NOTE - SETDIAG:  Diagnostic  #   199 AtPhCnvP is already set
(PID.TID 0000.0001) - NOTE - SETDIAG:  Diagnostic  #   200 AtPhLscP is already set
(PID.TID 0000.0001) - NOTE - SETDIAG:  Diagnostic  #   218 AtPhCAPE is already set
(PID.TID 0000.0001) SETDIAG: Allocate  1 x  1 Levels for Diagnostic #   219 AtPhCnIn
(PID.TID 0000.0001) SETDIAG: Allocate  1 x  1 Levels for Diagnostic #   220 AtPhKlzb
(PID.TID 0000.0001) SETDIAG: Allocate  1 x  1 Levels for Diagnostic #   221 AtPhConv
(PID.TID 0000.0001) SETDIAG: Allocate  1 x  1 Levels for Diagnostic #   222 AtPhRlxT
[...]
(PID.TID 0000.0001) // =======================================================
(PID.TID 0000.0001) // Begin MONITOR dynamic field statistics
(PID.TID 0000.0001) // =======================================================
(PID.TID 0000.0001) %MON time_tsnumber                =               4320010
(PID.TID 0000.0001) %MON time_secondsf                =   7.7760180000000E+08
(PID.TID 0000.0001) %MON dynstat_eta_max              =   2.8974939128077E+03
(PID.TID 0000.0001) %MON dynstat_eta_min              =  -1.1296521632707E+03
(PID.TID 0000.0001) %MON dynstat_eta_mean             =   7.2301603536883E-13
(PID.TID 0000.0001) %MON dynstat_eta_sd               =   7.4215757348535E+02
(PID.TID 0000.0001) %MON dynstat_eta_del2             =   9.4703609827758E-01
(PID.TID 0000.0001) %MON dynstat_uvel_max             =   1.5237322788251E+02
(PID.TID 0000.0001) %MON dynstat_uvel_min             =  -1.1146998084240E+02
(PID.TID 0000.0001) %MON dynstat_uvel_mean            =   3.4434214866310E+00
(PID.TID 0000.0001) %MON dynstat_uvel_sd              =   1.1511366573444E+01
(PID.TID 0000.0001) %MON dynstat_uvel_del2            =   1.4674846250314E-02
(PID.TID 0000.0001) %MON dynstat_vvel_max             =   1.2515574972723E+02
(PID.TID 0000.0001) %MON dynstat_vvel_min             =  -1.1901199360251E+02
(PID.TID 0000.0001) %MON dynstat_vvel_mean            =   3.4695018690688E+00
(PID.TID 0000.0001) %MON dynstat_vvel_sd              =   1.1138459082059E+01
(PID.TID 0000.0001) %MON dynstat_vvel_del2            =   1.4333339371192E-02
(PID.TID 0000.0001) %MON dynstat_wvel_max             =   6.4302169636837E-01
(PID.TID 0000.0001) %MON dynstat_wvel_min             =  -6.8958103584636E-01
(PID.TID 0000.0001) %MON dynstat_wvel_mean            =   3.0891349966744E-19
(PID.TID 0000.0001) %MON dynstat_wvel_sd              =   5.2001620713701E-02
(PID.TID 0000.0001) %MON dynstat_wvel_del2            =   1.4224409360081E-04
(PID.TID 0000.0001) %MON dynstat_theta_max            =   6.2465991451310E+03
(PID.TID 0000.0001) %MON dynstat_theta_min            =   2.6945528739878E+02
(PID.TID 0000.0001) %MON dynstat_theta_mean           =   3.4931376954967E+02
(PID.TID 0000.0001) %MON dynstat_theta_sd             =   1.3230034828470E+02
(PID.TID 0000.0001) %MON dynstat_theta_del2           =   7.9192920447949E-02
(PID.TID 0000.0001) %MON dynstat_salt_max             =   2.0135706698972E-02
(PID.TID 0000.0001) %MON dynstat_salt_min             =   3.8470991680864E-05
(PID.TID 0000.0001) %MON dynstat_salt_mean            =   2.9915017305889E-03
(PID.TID 0000.0001) %MON dynstat_salt_sd              =   3.9505900216418E-03
(PID.TID 0000.0001) %MON dynstat_salt_del2            =   1.3459563114746E-06
(PID.TID 0000.0001) %MON trAdv_CFL_u_max              =   1.9122490909780E-01
(PID.TID 0000.0001) %MON trAdv_CFL_v_max              =   1.5932898625144E-01
(PID.TID 0000.0001) %MON trAdv_CFL_w_max              =   9.2510755297268E-02
(PID.TID 0000.0001) %MON advcfl_uvel_max              =   1.6185469023732E-01
(PID.TID 0000.0001) %MON advcfl_vvel_max              =   1.5519872707695E-01
(PID.TID 0000.0001) %MON advcfl_wvel_max              =   5.9915425854987E-02
(PID.TID 0000.0001) %MON advcfl_W_hf_max              =   7.9114100797301E-02
(PID.TID 0000.0001) %MON am_eta_mean                  =  -3.8361756879663E+10
(PID.TID 0000.0001) %MON am_uZo_mean                  =   5.0749609549985E+11
(PID.TID 0000.0001) %MON am_tot_mean                  =   4.6913433862018E+11
(PID.TID 0000.0001) %MON pe_b_mean                    =   2.2743058991960E+00
(PID.TID 0000.0001) %MON ke_max                       =   1.3095033912005E+04
(PID.TID 0000.0001) %MON ke_mean                      =   1.4023584838299E+02
(PID.TID 0000.0001) %MON ke_vol                       =   5.0985911178574E+19
(PID.TID 0000.0001) %MON vort_r_min                   =  -6.2327309273329E-04
(PID.TID 0000.0001) %MON vort_r_max                   =   6.0986004833179E-04
(PID.TID 0000.0001) %MON vort_a_mean                  =  -2.9906832188500E-19
(PID.TID 0000.0001) %MON vort_a_sd                    =   8.8583048071987E-05
(PID.TID 0000.0001) %MON vort_p_mean                  =  -2.9906789944889E-19
(PID.TID 0000.0001) %MON vort_p_sd                    =   8.8431966277155E-05
(PID.TID 0000.0001) %MON surfExpan_theta_mean         =  -1.1299033376572E-04
(PID.TID 0000.0001) %MON surfExpan_salt_mean          =  -8.7020265616950E-08
(PID.TID 0000.0001) %MON surfExpan_Heat_mean          =  -7.5101569632976E-03
(PID.TID 0000.0001) %MON En_Budget_T2PE_mean          =   1.2418888693958E+00
(PID.TID 0000.0001) // =======================================================
(PID.TID 0000.0001) // End MONITOR dynamic field statistics
(PID.TID 0000.0001) // =======================================================
(PID.TID 0000.0001) DIAGSTATS_CLOSE_IO: close file: dynStDiag.0004320000.txt , unit=     9
(PID.TID 0000.0001) DIAGSTATS_CLOSE_IO: close file: phyStDiag.0004320000.txt , unit=    10
(PID.TID 0000.0001) DIAGSTATS_CLOSE_IO: close file: flxStDiag.0004320000.txt , unit=    16
(PID.TID 0000.0001) %CHECKPOINT   4320010 ckptA
(PID.TID 0000.0001)   Seconds in section "ALL                    [THE_MODEL_MAIN]":
(PID.TID 0000.0001)           User time:   56.243450066074729
(PID.TID 0000.0001)         System time:  0.46992799546569586
(PID.TID 0000.0001)     Wall clock time:   56.841569185256958
(PID.TID 0000.0001)          No. starts:           1
(PID.TID 0000.0001)           No. stops:           1
(PID.TID 0000.0001)   Seconds in section "INITIALISE_FIXED       [THE_MODEL_MAIN]":
(PID.TID 0000.0001)           User time:  0.47992699407041073
(PID.TID 0000.0001)         System time:  2.59959986433386803E-002
(PID.TID 0000.0001)     Wall clock time:  0.50707292556762695
(PID.TID 0000.0001)          No. starts:           1
(PID.TID 0000.0001)           No. stops:           1
(PID.TID 0000.0001)   Seconds in section "THE_MAIN_LOOP          [THE_MODEL_MAIN]":
(PID.TID 0000.0001)           User time:   55.763523072004318
(PID.TID 0000.0001)         System time:  0.44393199682235718
(PID.TID 0000.0001)     Wall clock time:   56.334450960159302
(PID.TID 0000.0001)          No. starts:           1
(PID.TID 0000.0001)           No. stops:           1
(PID.TID 0000.0001)   Seconds in section "INITIALISE_VARIA    [THE_MAIN_LOOP]":
(PID.TID 0000.0001)           User time:   1.5267679393291473
(PID.TID 0000.0001)         System time:  9.89850014448165894E-002
(PID.TID 0000.0001)     Wall clock time:   1.6319389343261719
(PID.TID 0000.0001)          No. starts:           1
(PID.TID 0000.0001)           No. stops:           1
(PID.TID 0000.0001)   Seconds in section "MAIN LOOP           [THE_MAIN_LOOP]":
(PID.TID 0000.0001)           User time:   54.236755132675171
(PID.TID 0000.0001)         System time:  0.34494699537754059
(PID.TID 0000.0001)     Wall clock time:   54.702479839324951
(PID.TID 0000.0001)          No. starts:           1
(PID.TID 0000.0001)           No. stops:           1
(PID.TID 0000.0001)   Seconds in section "MAIN_DO_LOOP        [THE_MAIN_LOOP]":
(PID.TID 0000.0001)           User time:   54.236755132675171
(PID.TID 0000.0001)         System time:  0.34494699537754059
(PID.TID 0000.0001)     Wall clock time:   54.702383995056152
(PID.TID 0000.0001)          No. starts:          10
(PID.TID 0000.0001)           No. stops:          10
(PID.TID 0000.0001)   Seconds in section "FORWARD_STEP        [MAIN_DO_LOOP]":
(PID.TID 0000.0001)           User time:   54.236755132675171
(PID.TID 0000.0001)         System time:  0.34494699537754059
(PID.TID 0000.0001)     Wall clock time:   54.702198982238770
(PID.TID 0000.0001)          No. starts:          10
(PID.TID 0000.0001)           No. stops:          10
(PID.TID 0000.0001)   Seconds in section "DO_STATEVARS_DIAGS  [FORWARD_STEP]":
(PID.TID 0000.0001)           User time:   4.0483922958374023
(PID.TID 0000.0001)         System time:  9.99003648757934570E-004
(PID.TID 0000.0001)     Wall clock time:   4.0586769580841064
(PID.TID 0000.0001)          No. starts:          30
(PID.TID 0000.0001)           No. stops:          30
(PID.TID 0000.0001)   Seconds in section "LOAD_FIELDS_DRIVER  [FORWARD_STEP]":
(PID.TID 0000.0001)           User time:  4.89885807037353516E-002
(PID.TID 0000.0001)         System time:   0.0000000000000000
(PID.TID 0000.0001)     Wall clock time:  4.82933521270751953E-002
(PID.TID 0000.0001)          No. starts:          10
(PID.TID 0000.0001)           No. stops:          10
(PID.TID 0000.0001)   Seconds in section "DO_ATMOSPHERIC_PHYS [FORWARD_STEP]":
(PID.TID 0000.0001)           User time:   9.7285242080688477
(PID.TID 0000.0001)         System time:  0.31395298242568970
(PID.TID 0000.0001)     Wall clock time:   10.063165187835693
(PID.TID 0000.0001)          No. starts:          10
(PID.TID 0000.0001)           No. stops:          10
(PID.TID 0000.0001)   Seconds in section "ATM_PHYS_DRIVER [DO_ATMOSPHERIC_PHYS]":
(PID.TID 0000.0001)           User time:   9.5285568237304688
(PID.TID 0000.0001)         System time:  0.31295397877693176
(PID.TID 0000.0001)     Wall clock time:   9.8630683422088623
(PID.TID 0000.0001)          No. starts:          10
(PID.TID 0000.0001)           No. stops:          10
(PID.TID 0000.0001)   Seconds in section "DO_OCEANIC_PHYS     [FORWARD_STEP]":
(PID.TID 0000.0001)           User time:  1.00040435791015625E-003
(PID.TID 0000.0001)         System time:  1.00000202655792236E-003
(PID.TID 0000.0001)     Wall clock time:  4.06050682067871094E-003
(PID.TID 0000.0001)          No. starts:          10
(PID.TID 0000.0001)           No. stops:          10
(PID.TID 0000.0001)   Seconds in section "DYNAMICS            [FORWARD_STEP]":
(PID.TID 0000.0001)           User time:   11.328274726867676
(PID.TID 0000.0001)         System time:  1.00000202655792236E-003
(PID.TID 0000.0001)     Wall clock time:   11.358206033706665
(PID.TID 0000.0001)          No. starts:          10
(PID.TID 0000.0001)           No. stops:          10
(PID.TID 0000.0001)   Seconds in section "UPDATE_R_STAR       [FORWARD_STEP]":
(PID.TID 0000.0001)           User time:  0.77388429641723633
(PID.TID 0000.0001)         System time:   0.0000000000000000
(PID.TID 0000.0001)     Wall clock time:  0.77730202674865723
(PID.TID 0000.0001)          No. starts:          10
(PID.TID 0000.0001)           No. stops:          10
(PID.TID 0000.0001)   Seconds in section "UPDATE_CG2D         [FORWARD_STEP]":
(PID.TID 0000.0001)           User time:  0.28795766830444336
(PID.TID 0000.0001)         System time:   0.0000000000000000
(PID.TID 0000.0001)     Wall clock time:  0.28889441490173340
(PID.TID 0000.0001)          No. starts:          10
(PID.TID 0000.0001)           No. stops:          10
(PID.TID 0000.0001)   Seconds in section "SOLVE_FOR_PRESSURE  [FORWARD_STEP]":
(PID.TID 0000.0001)           User time:  0.59790468215942383
(PID.TID 0000.0001)         System time:   0.0000000000000000
(PID.TID 0000.0001)     Wall clock time:  0.59636521339416504
(PID.TID 0000.0001)          No. starts:          10
(PID.TID 0000.0001)           No. stops:          10
(PID.TID 0000.0001)   Seconds in section "MOM_CORRECTION_STEP [FORWARD_STEP]":
(PID.TID 0000.0001)           User time:   5.8361139297485352
(PID.TID 0000.0001)         System time:   0.0000000000000000
(PID.TID 0000.0001)     Wall clock time:   5.8484549522399902
(PID.TID 0000.0001)          No. starts:          10
(PID.TID 0000.0001)           No. stops:          10
(PID.TID 0000.0001)   Seconds in section "SHAP_FILT_UV       [MOM_CORR_STEP]":
(PID.TID 0000.0001)           User time:   5.3491859436035156
(PID.TID 0000.0001)         System time:   0.0000000000000000
(PID.TID 0000.0001)     Wall clock time:   5.3623254299163818
(PID.TID 0000.0001)          No. starts:          10
(PID.TID 0000.0001)           No. stops:          10
(PID.TID 0000.0001)   Seconds in section "INTEGR_CONTINUITY   [FORWARD_STEP]":
(PID.TID 0000.0001)           User time:  0.91985654830932617
(PID.TID 0000.0001)         System time:   0.0000000000000000
(PID.TID 0000.0001)     Wall clock time:  0.91843795776367188
(PID.TID 0000.0001)          No. starts:          10
(PID.TID 0000.0001)           No. stops:          10
(PID.TID 0000.0001)   Seconds in section "CALC_R_STAR         [FORWARD_STEP]":
(PID.TID 0000.0001)           User time:  6.29959106445312500E-002
(PID.TID 0000.0001)         System time:   0.0000000000000000
(PID.TID 0000.0001)     Wall clock time:  6.23822212219238281E-002
(PID.TID 0000.0001)          No. starts:          10
(PID.TID 0000.0001)           No. stops:          10
(PID.TID 0000.0001)   Seconds in section "BLOCKING_EXCHANGES  [FORWARD_STEP]":
(PID.TID 0000.0001)           User time:  0.70788383483886719
(PID.TID 0000.0001)         System time:   0.0000000000000000
(PID.TID 0000.0001)     Wall clock time:  0.71203494071960449
(PID.TID 0000.0001)          No. starts:          20
(PID.TID 0000.0001)           No. stops:          20
(PID.TID 0000.0001)   Seconds in section "THERMODYNAMICS      [FORWARD_STEP]":
(PID.TID 0000.0001)           User time:   11.931182861328125
(PID.TID 0000.0001)         System time:  1.00000202655792236E-003
(PID.TID 0000.0001)     Wall clock time:   11.955598354339600
(PID.TID 0000.0001)          No. starts:          10
(PID.TID 0000.0001)           No. stops:          10
(PID.TID 0000.0001)   Seconds in section "TRC_CORRECTION_STEP [FORWARD_STEP]":
(PID.TID 0000.0001)           User time:   2.1036868095397949
(PID.TID 0000.0001)         System time:   0.0000000000000000
(PID.TID 0000.0001)     Wall clock time:   2.1070744991302490
(PID.TID 0000.0001)          No. starts:          10
(PID.TID 0000.0001)           No. stops:          10
(PID.TID 0000.0001)   Seconds in section "SHAP_FILT_TS       [TRC_CORR_STEP]":
(PID.TID 0000.0001)           User time:   2.1036868095397949
(PID.TID 0000.0001)         System time:   0.0000000000000000
(PID.TID 0000.0001)     Wall clock time:   2.1068558692932129
(PID.TID 0000.0001)          No. starts:          10
(PID.TID 0000.0001)           No. stops:          10
(PID.TID 0000.0001)   Seconds in section "MONITOR             [FORWARD_STEP]":
(PID.TID 0000.0001)           User time:   5.5681505203247070
(PID.TID 0000.0001)         System time:  9.99003648757934570E-004
(PID.TID 0000.0001)     Wall clock time:   5.5842063426971436
(PID.TID 0000.0001)          No. starts:          10
(PID.TID 0000.0001)           No. stops:          10
(PID.TID 0000.0001)   Seconds in section "DO_THE_MODEL_IO     [FORWARD_STEP]":
(PID.TID 0000.0001)           User time:  0.12398147583007813
(PID.TID 0000.0001)         System time:  1.09980106353759766E-002
(PID.TID 0000.0001)     Wall clock time:  0.13563728332519531
(PID.TID 0000.0001)          No. starts:          10
(PID.TID 0000.0001)           No. stops:          10
(PID.TID 0000.0001)   Seconds in section "DO_WRITE_PICKUP     [FORWARD_STEP]":
(PID.TID 0000.0001)           User time:  0.16497421264648438
(PID.TID 0000.0001)         System time:  1.49979889392852783E-002
(PID.TID 0000.0001)     Wall clock time:  0.18119001388549805
(PID.TID 0000.0001)          No. starts:          10
(PID.TID 0000.0001)           No. stops:          10
(PID.TID 0000.0001) // ======================================================
(PID.TID 0000.0001) // Tile <-> Tile communication statistics
(PID.TID 0000.0001) // ======================================================
(PID.TID 0000.0001) // o Tile number: 000001
(PID.TID 0000.0001) //         No. X exchanges =              0
(PID.TID 0000.0001) //            Max. X spins =              0
(PID.TID 0000.0001) //            Min. X spins =     1000000000
(PID.TID 0000.0001) //          Total. X spins =              0
(PID.TID 0000.0001) //            Avg. X spins =       0.00E+00
(PID.TID 0000.0001) //         No. Y exchanges =              0
(PID.TID 0000.0001) //            Max. Y spins =              0
(PID.TID 0000.0001) //            Min. Y spins =     1000000000
(PID.TID 0000.0001) //          Total. Y spins =              0
(PID.TID 0000.0001) //            Avg. Y spins =       0.00E+00
(PID.TID 0000.0001) // o Tile number: 000002
(PID.TID 0000.0001) //         No. X exchanges =              0
(PID.TID 0000.0001) //            Max. X spins =              0
(PID.TID 0000.0001) //            Min. X spins =     1000000000
(PID.TID 0000.0001) //          Total. X spins =              0
(PID.TID 0000.0001) //            Avg. X spins =       0.00E+00
(PID.TID 0000.0001) //         No. Y exchanges =              0
(PID.TID 0000.0001) //            Max. Y spins =              0
(PID.TID 0000.0001) //            Min. Y spins =     1000000000
(PID.TID 0000.0001) //          Total. Y spins =              0
(PID.TID 0000.0001) //            Avg. Y spins =       0.00E+00
(PID.TID 0000.0001) // o Tile number: 000003
(PID.TID 0000.0001) //         No. X exchanges =              0
(PID.TID 0000.0001) //            Max. X spins =              0
(PID.TID 0000.0001) //            Min. X spins =     1000000000
(PID.TID 0000.0001) //          Total. X spins =              0
(PID.TID 0000.0001) //            Avg. X spins =       0.00E+00
(PID.TID 0000.0001) //         No. Y exchanges =              0
(PID.TID 0000.0001) //            Max. Y spins =              0
(PID.TID 0000.0001) //            Min. Y spins =     1000000000
(PID.TID 0000.0001) //          Total. Y spins =              0
(PID.TID 0000.0001) //            Avg. Y spins =       0.00E+00
(PID.TID 0000.0001) // o Tile number: 000004
(PID.TID 0000.0001) //         No. X exchanges =              0
(PID.TID 0000.0001) //            Max. X spins =              0
(PID.TID 0000.0001) //            Min. X spins =     1000000000
(PID.TID 0000.0001) //          Total. X spins =              0
(PID.TID 0000.0001) //            Avg. X spins =       0.00E+00
(PID.TID 0000.0001) //         No. Y exchanges =              0
(PID.TID 0000.0001) //            Max. Y spins =              0
(PID.TID 0000.0001) //            Min. Y spins =     1000000000
(PID.TID 0000.0001) //          Total. Y spins =              0
(PID.TID 0000.0001) //            Avg. Y spins =       0.00E+00
(PID.TID 0000.0001) // o Tile number: 000005
(PID.TID 0000.0001) //         No. X exchanges =              0
(PID.TID 0000.0001) //            Max. X spins =              0
(PID.TID 0000.0001) //            Min. X spins =     1000000000
(PID.TID 0000.0001) //          Total. X spins =              0
(PID.TID 0000.0001) //            Avg. X spins =       0.00E+00
(PID.TID 0000.0001) //         No. Y exchanges =              0
(PID.TID 0000.0001) //            Max. Y spins =              0
(PID.TID 0000.0001) //            Min. Y spins =     1000000000
(PID.TID 0000.0001) //          Total. Y spins =              0
(PID.TID 0000.0001) //            Avg. Y spins =       0.00E+00
(PID.TID 0000.0001) // o Tile number: 000006
(PID.TID 0000.0001) //         No. X exchanges =              0
(PID.TID 0000.0001) //            Max. X spins =              0
(PID.TID 0000.0001) //            Min. X spins =     1000000000
(PID.TID 0000.0001) //          Total. X spins =              0
(PID.TID 0000.0001) //            Avg. X spins =       0.00E+00
(PID.TID 0000.0001) //         No. Y exchanges =              0
(PID.TID 0000.0001) //            Max. Y spins =              0
(PID.TID 0000.0001) //            Min. Y spins =     1000000000
(PID.TID 0000.0001) //          Total. Y spins =              0
(PID.TID 0000.0001) //            Avg. Y spins =       0.00E+00
(PID.TID 0000.0001) // o Thread number: 000001
(PID.TID 0000.0001) //            No. barriers =           6070
(PID.TID 0000.0001) //      Max. barrier spins =              1
(PID.TID 0000.0001) //      Min. barrier spins =              1
(PID.TID 0000.0001) //     Total barrier spins =           6070
(PID.TID 0000.0001) //      Avg. barrier spins =       1.00E+00
PROGRAM MAIN: Execution ended Normally
