(PID.TID 0000.0001) 
(PID.TID 0000.0001) // ======================================================
(PID.TID 0000.0001) //                      MITgcm UV
(PID.TID 0000.0001) //                      =========
(PID.TID 0000.0001) // ======================================================
(PID.TID 0000.0001) // execution environment starting up...
(PID.TID 0000.0001) 
(PID.TID 0000.0001) // MITgcmUV version:  checkpoint65a
(PID.TID 0000.0001) // Build user:        gforget2
(PID.TID 0000.0001) // Build host:        pfe22
(PID.TID 0000.0001) // Build date:        Fri Sep 12 14:24:33 PDT 2014
(PID.TID 0000.0001) 
(PID.TID 0000.0001) // =======================================================
(PID.TID 0000.0001) // Execution Environment parameter file "eedata"
(PID.TID 0000.0001) // =======================================================
(PID.TID 0000.0001) ># Example "eedata" file
(PID.TID 0000.0001) ># Lines beginning "#" are comments
(PID.TID 0000.0001) ># nTx - No. threads per process in X
(PID.TID 0000.0001) ># nTy - No. threads per process in Y
(PID.TID 0000.0001) > &EEPARMS
(PID.TID 0000.0001) > useCubedSphereExchange=.TRUE.,
(PID.TID 0000.0001) > nTx=1,
(PID.TID 0000.0001) > nTy=1,
(PID.TID 0000.0001) > /
(PID.TID 0000.0001) ># Note: Some systems use & as the
(PID.TID 0000.0001) ># namelist terminator. Other systems
(PID.TID 0000.0001) ># use a / character (as shown here).
(PID.TID 0000.0001) 
(PID.TID 0000.0001) // =======================================================
(PID.TID 0000.0001) // Computational Grid Specification ( see files "SIZE.h" )
(PID.TID 0000.0001) //                                  ( and "eedata"       )
(PID.TID 0000.0001) // =======================================================
(PID.TID 0000.0001)      nPx =   96 ; /* No. processes in X */
(PID.TID 0000.0001)      nPy =    1 ; /* No. processes in Y */
(PID.TID 0000.0001)      nSx =    1 ; /* No. tiles in X per process */
(PID.TID 0000.0001)      nSy =    1 ; /* No. tiles in Y per process */
(PID.TID 0000.0001)      sNx =   30 ; /* Tile size in X */
(PID.TID 0000.0001)      sNy =   30 ; /* Tile size in Y */
(PID.TID 0000.0001)      OLx =    4 ; /* Tile overlap distance in X */
(PID.TID 0000.0001)      OLy =    4 ; /* Tile overlap distance in Y */
(PID.TID 0000.0001)      nTx =    1 ; /* No. threads in X per process */
(PID.TID 0000.0001)      nTy =    1 ; /* No. threads in Y per process */
(PID.TID 0000.0001)       Nr =   50 ; /* No. levels in the vertical   */
(PID.TID 0000.0001)       Nx = 2880 ; /* Total domain size in X ( = nPx*nSx*sNx ) */
(PID.TID 0000.0001)       Ny =   30 ; /* Total domain size in Y ( = nPy*nSy*sNy ) */
(PID.TID 0000.0001)   nTiles =    1 ; /* Total no. tiles per process ( = nSx*nSy ) */
(PID.TID 0000.0001)   nProcs =   96 ; /* Total no. processes ( = nPx*nPy ) */
(PID.TID 0000.0001) nThreads =    1 ; /* Total no. threads per process ( = nTx*nTy ) */
(PID.TID 0000.0001) usingMPI =    T ; /* Flag used to control whether MPI is in use */
(PID.TID 0000.0001)                   /*  note: To execute a program with MPI calls */
(PID.TID 0000.0001)                   /*  it must be launched appropriately e.g     */
(PID.TID 0000.0001)                   /*  "mpirun -np 64 ......"                    */
(PID.TID 0000.0001) useCoupler=    F ;/* Flag used to control communications with   */
(PID.TID 0000.0001)                   /*  other model components, through a coupler */
(PID.TID 0000.0001) debugMode =    F ; /* print debug msg. (sequence of S/R calls)  */
(PID.TID 0000.0001) printMapIncludesZeros=    F ; /* print zeros in Std.Output maps */
(PID.TID 0000.0001) maxLengthPrt1D=   65 /* maxLength of 1D array printed to StdOut */
(PID.TID 0000.0001) 
(PID.TID 0000.0001) ======= Starting MPI parallel Run =========
(PID.TID 0000.0001)  My Processor Name (len:  8 ) = r441i3n6
(PID.TID 0000.0001)  Located at (  0,  0) on processor grid (0: 95,0:  0)
(PID.TID 0000.0001)  Origin at  (     1,     1) on global grid (1:  2880,1:    30)
(PID.TID 0000.0001)  North neighbor = processor 0000
(PID.TID 0000.0001)  South neighbor = processor 0000
(PID.TID 0000.0001)   East neighbor = processor 0001
(PID.TID 0000.0001)   West neighbor = processor 0095
(PID.TID 0000.0001) // ======================================================
(PID.TID 0000.0001) // Mapping of tiles to threads
(PID.TID 0000.0001) // ======================================================
(PID.TID 0000.0001) // -o- Thread   1, tiles (   1:   1,   1:   1)
(PID.TID 0000.0001) 
(PID.TID 0000.0001) W2_READPARMS: opening data.exch2
(PID.TID 0000.0001)  OPEN_COPY_DATA_FILE: opening file data.exch2
(PID.TID 0000.0001) // =======================================================
(PID.TID 0000.0001) // Parameter file "data.exch2"
(PID.TID 0000.0001) // =======================================================
(PID.TID 0000.0001) ># EXCH2 Package: Wrapper-2 User Choice
(PID.TID 0000.0001) >#--------------------
(PID.TID 0000.0001) >#  preDefTopol   :: pre-defined Topology selector:
(PID.TID 0000.0001) >#                :: = 0 : topology defined from processing "data.exch2";
(PID.TID 0000.0001) >#                :: = 1 : simple, single facet topology;
(PID.TID 0000.0001) >#                :: = 2 : customized topology (w2_set_myown_facets)
(PID.TID 0000.0001) >#                :: = 3 : 6-facet Cube (3 face-dims: nRed, nGreen, nBlue).
(PID.TID 0000.0001) >#  dimsFacets    :: facet pair of dimensions (n1x,n1y, n2x,n2y ...)
(PID.TID 0000.0001) >#  facetEdgeLink :: Face-Edge connectivity map:
(PID.TID 0000.0001) >#    facetEdgeLink(i,j)=XX.1 : face(j)-edge(i) (i=1,2,3,4 <==> N,S,E,W)
(PID.TID 0000.0001) >#    is connected to Northern edge of face "XX" ; similarly,
(PID.TID 0000.0001) >#    = XX.2 : to Southern.E, XX.3 = Eastern.E, XX.4 = Western.E of face "XX"
(PID.TID 0000.0001) >#  blankList     :: List of "blank" tiles
(PID.TID 0000.0001) >#  W2_mapIO      :: global map IO selector (-1 = old type ; 0 = 1 long line in X
(PID.TID 0000.0001) >#                :: 1 = compact, mostly in Y dir)
(PID.TID 0000.0001) >#  W2_printMsg   :: option for information messages printing
(PID.TID 0000.0001) >#                :: <0 : write to log file ; =0 : minimum print ;
(PID.TID 0000.0001) >#                :: =1 : no duplicated print ; =2 : all processes do print
(PID.TID 0000.0001) >#--------------------
(PID.TID 0000.0001) > &W2_EXCH2_PARM01
(PID.TID 0000.0001) >  W2_printMsg= 0,
(PID.TID 0000.0001) >  W2_mapIO   = 1,
(PID.TID 0000.0001) >#
(PID.TID 0000.0001) >  preDefTopol=0,
(PID.TID 0000.0001) >#-- 5 facets llc_120 topology (drop facet 6 and its connection):
(PID.TID 0000.0001) >  dimsFacets(1:10) = 90, 270, 90, 270, 90, 90, 270, 90, 270, 90,
(PID.TID 0000.0001) >  facetEdgeLink(1:4,1)= 3.4, 0. , 2.4, 5.1,
(PID.TID 0000.0001) >  facetEdgeLink(1:4,2)= 3.2, 0. , 4.2, 1.3,
(PID.TID 0000.0001) >  facetEdgeLink(1:4,3)= 5.4, 2.1, 4.4, 1.1,
(PID.TID 0000.0001) >  facetEdgeLink(1:4,4)= 5.2, 2.3, 0. , 3.3,
(PID.TID 0000.0001) >  facetEdgeLink(1:4,5)= 1.4, 4.1, 0. , 3.1,
(PID.TID 0000.0001) >#-- full 6 facets llc_120 topology (equivalent to default preDefTopol=3):
(PID.TID 0000.0001) ># dimsFacets(1:12) = 120, 360, 120, 360, 120, 120, 360, 120, 360, 120, 120, 120,
(PID.TID 0000.0001) ># facetEdgeLink(1:4,1)= 3.4, 6.1, 2.4, 5.1,
(PID.TID 0000.0001) ># facetEdgeLink(1:4,2)= 3.2, 6.3, 4.2, 1.3,
(PID.TID 0000.0001) ># facetEdgeLink(1:4,3)= 5.4, 2.1, 4.4, 1.1,
(PID.TID 0000.0001) ># facetEdgeLink(1:4,4)= 5.2, 2.3, 6.2, 3.3,
(PID.TID 0000.0001) ># facetEdgeLink(1:4,5)= 1.4, 4.1, 6.4, 3.1,
(PID.TID 0000.0001) ># facetEdgeLink(1:4,6)= 1.2, 4.3, 2.2, 5.3,
(PID.TID 0000.0001) >#
(PID.TID 0000.0001) >#90x30   nprocs = 36
(PID.TID 0000.0001) >#  blankList(1:3)=1,10,11,
(PID.TID 0000.0001) >#30x90
(PID.TID 0000.0001) >#
(PID.TID 0000.0001) >#45x30   nprocs = 72
(PID.TID 0000.0001) >#  blankList(1:6)=1,2,19,20,21,22
(PID.TID 0000.0001) >#old:  blankList(1:8)=1,2,19,20,21,22,33,72
(PID.TID 0000.0001) >#30x45   nprocs = 68
(PID.TID 0000.0001) >#  blankList(1:10)=2,3,19,20,21,35,51,60,69,78
(PID.TID 0000.0001) >#45x45   nprocs = 48
(PID.TID 0000.0001) >#  blankList(1:4)=2,13,14,23
(PID.TID 0000.0001) >#old:  blankList(1:3)=2,13,14
(PID.TID 0000.0001) >#30x30   nprocs = 96
(PID.TID 0000.0001) >  blankList(1:21)=1,2,3,5,6,28,29,30,31,32,33,49,50,52,53,72,81,90,99,108,117
(PID.TID 0000.0001) >#old:   blankList(1:18)=1,2,3,28,29,30,31,32,33,49,50,53,72,81,90,99,108,117
(PID.TID 0000.0001) >#15x30   nprocs = 192
(PID.TID 0000.0001) >#  blankList(1:42)=1,2,3,4,5,6,9,10,11,12,55,56,57,58,59,60,61,62,63,64,65,66,
(PID.TID 0000.0001) >#            97,98,99,100,103,104,105,106,143,144,
(PID.TID 0000.0001) >#            161,162,179,180,197,198,215,216,233,234
(PID.TID 0000.0001) >#15x15   nprocs = 360
(PID.TID 0000.0001) >#  blankList(1:108)=1,2,3,4,5,6,7,8,9,10,11,12,14,15,16,17,18,21,22,23,24,
(PID.TID 0000.0001) >#  65,71,75,76,90,95,96,101,102,109,110,111,112,113,114,115,116,117,118,119,
(PID.TID 0000.0001) >#  120,121,122,123,124,125,126,127,128,129,130,131,132,
(PID.TID 0000.0001) >#  188,189,190,193,194,195,196,199,
(PID.TID 0000.0001) >#  200,201,202,203,205,206,207,208,209,211,212,213,214,215,216,242,247,253,
(PID.TID 0000.0001) >#  267,268,269,270,287,288,305,306,323,324,341,342,359,360,362,376,377,378,
(PID.TID 0000.0001) >#  380,381,382,395,396,400,412,413,414,430,
(PID.TID 0000.0001) >#
(PID.TID 0000.0001) > /
(PID.TID 0000.0001) 
(PID.TID 0000.0001) W2_READPARMS: finished reading data.exch2
(PID.TID 0000.0001) W2_useE2ioLayOut=    T ;/* T: use Exch2 glob IO map; F: use model default */
(PID.TID 0000.0001) W2_mapIO        =   1 ; /* select option for Exch2 global-IO map */
(PID.TID 0000.0001) W2_printMsg     =   0 ; /* select option for printing information */
(PID.TID 0000.0001) ===== Start setting W2 TOPOLOGY:
(PID.TID 0000.0001) W2_E2SETUP: number of Active Tiles =      96
(PID.TID 0000.0001) W2_E2SETUP: number of Blank Tiles  =      21
(PID.TID 0000.0001) W2_E2SETUP: Total number of Tiles  =     117
(PID.TID 0000.0001) W2_SET_GEN_FACETS: preDefTopol=  0 selected
(PID.TID 0000.0001) W2_SET_GEN_FACETS: Number of facets =  5 (inferred from "dimsFacets")
(PID.TID 0000.0001) W2_E2SETUP: Total number of Facets =       5
(PID.TID 0000.0001) W2_SET_F2F_INDEX: index matrix for connected Facet-Edges:
(PID.TID 0000.0001) ** WARNING ** S.Edge of facet #  1 disconnected (facet_link=  0.00)
(PID.TID 0000.0001) ** WARNING ** S.Edge of facet #  2 disconnected (facet_link=  0.00)
(PID.TID 0000.0001) ** WARNING ** E.Edge of facet #  4 disconnected (facet_link=  0.00)
(PID.TID 0000.0001) ** WARNING ** E.Edge of facet #  5 disconnected (facet_link=  0.00)
(PID.TID 0000.0001) W2_SET_MAP_TILES: tile mapping within facet and global Map:
(PID.TID 0000.0001)  W2_mapIO =   90 (=    3*sNx)
(PID.TID 0000.0001)  Global Map (IO): X-size=      90 , Y-size=    1170
(PID.TID 0000.0001) W2_SET_MAP_TILES: tile offset within facet and global Map:
- facet  1 : X-size=    90 , Y-size=   270 ;   27 tiles (Tx,Ty=   3,   9)
- facet  2 : X-size=    90 , Y-size=   270 ;   27 tiles (Tx,Ty=   3,   9)
- facet  3 : X-size=    90 , Y-size=    90 ;    9 tiles (Tx,Ty=   3,   3)
- facet  4 : X-size=   270 , Y-size=    90 ;   27 tiles (Tx,Ty=   9,   3)
- facet  5 : X-size=   270 , Y-size=    90 ;   27 tiles (Tx,Ty=   9,   3)
(PID.TID 0000.0001) W2_SET_MAP_CUMSUM: setting Facet Matrix for CUMUL-SUM
(PID.TID 0000.0001) W2_SET_MAP_CUMSUM: set    4 /   5 active facets (pass,type=   1, 1)
 Facet Matrix for CUMUL-SUM (nFacets=   5, nActive=   5 ):
- facet  1 :  0  0 ,  0  0 ,  0  0 ,  0  0 ,  0  0 ,
- facet  2 :  1  0 ,  0  0 ,  0  0 ,  0  0 ,  0  0 ,
- facet  3 :  1  0 ,  0  1 ,  0  0 ,  0  0 ,  0  0 ,
- facet  4 :  1  0 ,  0  1 ,  1  0 ,  0  0 ,  0  0 ,
- facet  5 :  1  0 ,  0  1 ,  1  0 ,  0  1 ,  0  0 ,
 missing-corner Tile for CUMUL-SUM (nTiles=   117 ): W2_tMC1=    25 , W2_tMC2=     0
(PID.TID 0000.0001) W2_SET_MAP_CUMSUM: done (skip Tile Matrix setting)
(PID.TID 0000.0001) W2_SET_TILE2TILES: tile neighbours and index connection:
(PID.TID 0000.0001) current Max.Nb.Neighbours (e.g., on tile    7 ) =  4
(PID.TID 0000.0001) ===== W2 TILE TOPOLOGY =====
(PID.TID 0000.0001)  TILE:     4 (bi,bj=   1   1 ), Nb of Neighbours =  2
(PID.TID 0000.0001)     NEIGHBOUR  1 = TILE    7 (n=  2) Comm = MSG (PROC=    2)
(PID.TID 0000.0001)     NEIGHBOUR  2 = TILE  116 (n=  1) Comm = MSG (PROC=   96)
(PID.TID 0000.0001) =====       setting W2 TOPOLOGY: Done
(PID.TID 0000.0001) 
(PID.TID 0000.0001)  INI_PARMS: opening model parameter file "data"
(PID.TID 0000.0001)  OPEN_COPY_DATA_FILE: opening file data
(PID.TID 0000.0001) // =======================================================
(PID.TID 0000.0001) // Parameter file "data"
(PID.TID 0000.0001) // =======================================================
(PID.TID 0000.0001) ># ====================
(PID.TID 0000.0001) ># | Model parameters |
(PID.TID 0000.0001) ># ====================
(PID.TID 0000.0001) >#
(PID.TID 0000.0001) ># Continuous equation parameters
(PID.TID 0000.0001) > &PARM01
(PID.TID 0000.0001) > tRef               = 3*23.,3*22.,21.,2*20.,19.,2*18.,17.,2*16.,15.,14.,13.,
(PID.TID 0000.0001) >                      12.,11.,2*9.,8.,7.,2*6.,2*5.,3*4.,3*3.,4*2.,12*1.,
(PID.TID 0000.0001) > sRef               = 50*34.5,
(PID.TID 0000.0001) > no_slip_sides  = .TRUE.,
(PID.TID 0000.0001) > no_slip_bottom = .TRUE.,
(PID.TID 0000.0001) >#
(PID.TID 0000.0001) > viscAr=1.E-3,
(PID.TID 0000.0001) >#
(PID.TID 0000.0001) > viscAh=1.E0,
(PID.TID 0000.0001) > viscAhGrid=2.E-2,
(PID.TID 0000.0001) ># viscAh=2.0e4,
(PID.TID 0000.0001) >#
(PID.TID 0000.0001) > diffKhT=1.E1,
(PID.TID 0000.0001) > diffKrT=1.E-5,
(PID.TID 0000.0001) > diffKhS=1.E1,
(PID.TID 0000.0001) > diffKrS=1.E-5,
(PID.TID 0000.0001) >#
(PID.TID 0000.0001) >### diffKrBL79surf=0.1E-4,
(PID.TID 0000.0001) >### diffKrBL79deep=1.0E-4,
(PID.TID 0000.0001) > bottomDragQuadratic = 0.001,
(PID.TID 0000.0001) >#when using ggl90
(PID.TID 0000.0001) > ivdc_kappa=10.,
(PID.TID 0000.0001) > implicitDiffusion=.TRUE.,
(PID.TID 0000.0001) > implicitViscosity=.TRUE.,
(PID.TID 0000.0001) > useRealFreshWaterFlux=.TRUE.,
(PID.TID 0000.0001) ># balanceThetaClimRelax=.TRUE.,
(PID.TID 0000.0001) > balanceSaltClimRelax=.TRUE.,
(PID.TID 0000.0001) > balanceEmPmR=.TRUE.,
(PID.TID 0000.0001) ># balanceQnet=.TRUE.,
(PID.TID 0000.0001) > allowFreezing=.FALSE.,
(PID.TID 0000.0001) >### hFacInf=0.2,
(PID.TID 0000.0001) >### hFacSup=2.0,
(PID.TID 0000.0001) > hFacMin=.2,
(PID.TID 0000.0001) > hFacMinDr=5.,
(PID.TID 0000.0001) > select_rStar=2,
(PID.TID 0000.0001) > nonlinFreeSurf=4,
(PID.TID 0000.0001) > gravity=9.81,
(PID.TID 0000.0001) > rhonil=1029.,
(PID.TID 0000.0001) > rhoConst=1029.,
(PID.TID 0000.0001) > rhoConstFresh=1000.,
(PID.TID 0000.0001) > convertFW2Salt=-1.,
(PID.TID 0000.0001) > eosType='JMD95Z',
(PID.TID 0000.0001) > implicitFreeSurface=.TRUE.,
(PID.TID 0000.0001) > exactConserv=.TRUE.,
(PID.TID 0000.0001) > useSingleCpuIO=.TRUE.,
(PID.TID 0000.0001) > tempAdvScheme=30,
(PID.TID 0000.0001) > saltAdvScheme=30,
(PID.TID 0000.0001) > tempVertAdvScheme=3,
(PID.TID 0000.0001) > saltVertAdvScheme=3,
(PID.TID 0000.0001) > tempImplVertAdv=.TRUE.,
(PID.TID 0000.0001) > saltImplVertAdv=.TRUE.,
(PID.TID 0000.0001) > staggerTimeStep=.TRUE.,
(PID.TID 0000.0001) > vectorInvariantMomentum=.TRUE.,
(PID.TID 0000.0001) >#when using the cd scheme:
(PID.TID 0000.0001) ># useCDscheme=.TRUE.,
(PID.TID 0000.0001) > useJamartWetPoints=.TRUE.,
(PID.TID 0000.0001) > readBinaryPrec=32,
(PID.TID 0000.0001) > writeBinaryPrec=32,
(PID.TID 0000.0001) > debugLevel=1,
(PID.TID 0000.0001) > /
(PID.TID 0000.0001) >
(PID.TID 0000.0001) ># Elliptic solver parameters
(PID.TID 0000.0001) > &PARM02
(PID.TID 0000.0001) > cg2dMaxIters=300,
(PID.TID 0000.0001) > cg2dTargetResWunit=1.E-12,
(PID.TID 0000.0001) > /
(PID.TID 0000.0001) >
(PID.TID 0000.0001) ># Time stepping parameters
(PID.TID 0000.0001) > &PARM03
(PID.TID 0000.0001) > nIter0=1,
(PID.TID 0000.0001) >#2 lev2 for testing:
(PID.TID 0000.0001) > nTimeSteps=8,
(PID.TID 0000.0001) >#19y:
(PID.TID 0000.0001) >#nTimeSteps=166775,
(PID.TID 0000.0001) >#60 years
(PID.TID 0000.0001) >#nTimeSteps=525985,
(PID.TID 0000.0001) >#
(PID.TID 0000.0001) > forcing_In_AB=.FALSE.,
(PID.TID 0000.0001) > momDissip_In_AB=.FALSE.,
(PID.TID 0000.0001) >#when using the cd scheme:
(PID.TID 0000.0001) ># epsAB_CD = 0.25,
(PID.TID 0000.0001) ># tauCD=172800.0,
(PID.TID 0000.0001) > deltaTmom   =3600.,
(PID.TID 0000.0001) > deltaTtracer=3600.,
(PID.TID 0000.0001) > deltaTfreesurf=3600.,
(PID.TID 0000.0001) > deltaTClock =3600.,
(PID.TID 0000.0001) >#when using ab2:
(PID.TID 0000.0001) ># abEps = 0.1,
(PID.TID 0000.0001) >#when using ab3:
(PID.TID 0000.0001) > doAB_onGtGs=.FALSE.,
(PID.TID 0000.0001) > alph_AB=0.5,
(PID.TID 0000.0001) > beta_AB=0.281105,
(PID.TID 0000.0001) >#
(PID.TID 0000.0001) > pChkptFreq  =31536000.0,
(PID.TID 0000.0001) > chkptFreq   =31536000.0,
(PID.TID 0000.0001) ># taveFreq    =31536000.0,
(PID.TID 0000.0001) ># dumpFreq    =31536000.0,
(PID.TID 0000.0001) > monitorFreq = 7200.0,
(PID.TID 0000.0001) ># monitorFreq = 6307200.0,
(PID.TID 0000.0001) > dumpInitAndLast = .TRUE.,
(PID.TID 0000.0001) > adjDumpFreq = 31536000.0,
(PID.TID 0000.0001) > adjMonitorFreq = 864000.0,
(PID.TID 0000.0001) > pickupStrictlyMatch=.FALSE.,
(PID.TID 0000.0001) > /
(PID.TID 0000.0001) >
(PID.TID 0000.0001) ># Gridding parameters
(PID.TID 0000.0001) > &PARM04
(PID.TID 0000.0001) > usingCurvilinearGrid=.TRUE.,
(PID.TID 0000.0001) > delR =
(PID.TID 0000.0001) >     10.00, 10.00, 10.00, 10.00, 10.00, 10.00, 10.00, 10.01,
(PID.TID 0000.0001) >     10.03, 10.11, 10.32, 10.80, 11.76, 13.42, 16.04, 19.82, 24.85,
(PID.TID 0000.0001) >     31.10, 38.42, 46.50, 55.00, 63.50, 71.58, 78.90, 85.15, 90.18,
(PID.TID 0000.0001) >     93.96, 96.58, 98.25, 99.25,100.01,101.33,104.56,111.33,122.83,
(PID.TID 0000.0001) >     139.09,158.94,180.83,203.55,226.50,249.50,272.50,295.50,318.50,
(PID.TID 0000.0001) >     341.50,364.50,387.50,410.50,433.50,456.50,
(PID.TID 0000.0001) > /
(PID.TID 0000.0001) >
(PID.TID 0000.0001) ># Input datasets
(PID.TID 0000.0001) > &PARM05
(PID.TID 0000.0001) > adTapeDir='tapes',
(PID.TID 0000.0001) >#bathyFile      ='bathy_eccollc_90x50.bin',
(PID.TID 0000.0001) > bathyFile      ='bathy_eccollc_90x50_min2pts.bin',
(PID.TID 0000.0001) > hydrogThetaFile='T_OWPv1_M_eccollc_90x50.bin',
(PID.TID 0000.0001) > hydrogSaltFile ='S_OWPv1_M_eccollc_90x50.bin',
(PID.TID 0000.0001) > viscA4Dfile    ='viscA4Dfld_eccollc_90x50.bin',
(PID.TID 0000.0001) > viscA4Zfile    ='viscA4Zfld_eccollc_90x50.bin',
(PID.TID 0000.0001) >#
(PID.TID 0000.0001) > /
(PID.TID 0000.0001) 
(PID.TID 0000.0001)  INI_PARMS ; starts to read PARM01
(PID.TID 0000.0001)  INI_PARMS ; read PARM01 : OK
(PID.TID 0000.0001)  INI_PARMS ; starts to read PARM02
(PID.TID 0000.0001)  INI_PARMS ; read PARM02 : OK
(PID.TID 0000.0001)  INI_PARMS ; starts to read PARM03
(PID.TID 0000.0001)  INI_PARMS ; read PARM03 : OK
(PID.TID 0000.0001)  INI_PARMS ; starts to read PARM04
(PID.TID 0000.0001)  INI_PARMS ; read PARM04 : OK
(PID.TID 0000.0001)  INI_PARMS ; starts to read PARM05
(PID.TID 0000.0001)  INI_PARMS ; read PARM05 : OK
(PID.TID 0000.0001)  INI_PARMS: finished reading file "data"
(PID.TID 0000.0001)  PACKAGES_BOOT: opening data.pkg
(PID.TID 0000.0001)  OPEN_COPY_DATA_FILE: opening file data.pkg
(PID.TID 0000.0001) // =======================================================
(PID.TID 0000.0001) // Parameter file "data.pkg"
(PID.TID 0000.0001) // =======================================================
(PID.TID 0000.0001) ># Packages
(PID.TID 0000.0001) > &PACKAGES
(PID.TID 0000.0001) > useEXF   = .TRUE.,
(PID.TID 0000.0001) >#useRBCS  = .TRUE.,
(PID.TID 0000.0001) > useGMRedi= .TRUE.,
(PID.TID 0000.0001) ># useKPP   = .TRUE.,
(PID.TID 0000.0001) > useSBO   = .FALSE.,
(PID.TID 0000.0001) >#useMNC   = .TRUE.,
(PID.TID 0000.0001) > useSeaice= .TRUE.,
(PID.TID 0000.0001) > useGGL90=.TRUE.,
(PID.TID 0000.0001) > useSALT_PlUME=.TRUE.,
(PID.TID 0000.0001) ># useDOWN_SLOPE=.TRUE.,
(PID.TID 0000.0001) > useDiagnostics=.TRUE.,
(PID.TID 0000.0001) > useProfiles=.TRUE.,
(PID.TID 0000.0001) > useSMOOTH=.FALSE.,
(PID.TID 0000.0001) >#useGrdchk=.TRUE.,
(PID.TID 0000.0001) >#useLayers=.TRUE.,
(PID.TID 0000.0001) >#
(PID.TID 0000.0001) >#usePtracers=.TRUE.,
(PID.TID 0000.0001) >#useBBL=.TRUE.,
(PID.TID 0000.0001) > /
(PID.TID 0000.0001) 
(PID.TID 0000.0001)  PACKAGES_BOOT: finished reading data.pkg
(PID.TID 0000.0001)  PACKAGES_BOOT: On/Off package Summary
 --------  pkgs with a standard "usePKG" On/Off switch in "data.pkg":  --------
 pkg/ggl90                compiled   and   used ( useGGL90                 = T )
 pkg/gmredi               compiled   and   used ( useGMRedi                = T )
 pkg/cal                  compiled   and   used ( useCAL                   = T )
 pkg/exf                  compiled   and   used ( useEXF                   = T )
 pkg/grdchk               compiled but not used ( useGrdchk                = F )
 pkg/smooth               compiled but not used ( useSMOOTH                = F )
 pkg/profiles             compiled   and   used ( usePROFILES              = T )
 pkg/ecco                 compiled but not used ( useECCO                  = F )
 pkg/seaice               compiled   and   used ( useSEAICE                = T )
 pkg/salt_plume           compiled   and   used ( useSALT_PLUME            = T )
 pkg/diagnostics          compiled   and   used ( useDiagnostics           = T )
 -------- pkgs without standard "usePKG" On/Off switch in "data.pkg":  --------
 pkg/generic_advdiff      compiled   and   used ( useGAD                   = T )
 pkg/mom_common           compiled   and   used ( momStepping              = T )
 pkg/mom_vecinv           compiled   and   used ( +vectorInvariantMomentum = T )
 pkg/monitor              compiled   and   used ( monitorFreq > 0.         = T )
 pkg/timeave              compiled but not used ( taveFreq > 0.            = F )
 pkg/debug                compiled but not used ( debugMode                = F )
 pkg/exch2                compiled   and   used
 pkg/rw                   compiled   and   used
 pkg/mdsio                compiled   and   used
 pkg/autodiff             compiled   and   used
 pkg/cost                 compiled   and   used
 pkg/ctrl                 compiled   and   used
(PID.TID 0000.0001)  PACKAGES_BOOT: End of package Summary
(PID.TID 0000.0001) 
(PID.TID 0000.0001) CAL_READPARMS: opening data.cal
(PID.TID 0000.0001)  OPEN_COPY_DATA_FILE: opening file data.cal
(PID.TID 0000.0001) // =======================================================
(PID.TID 0000.0001) // Parameter file "data.cal"
(PID.TID 0000.0001) // =======================================================
(PID.TID 0000.0001) >#
(PID.TID 0000.0001) ># *******************
(PID.TID 0000.0001) ># Calendar Parameters
(PID.TID 0000.0001) ># *******************
(PID.TID 0000.0001) > &CAL_NML
(PID.TID 0000.0001) > TheCalendar='gregorian',
(PID.TID 0000.0001) > calendarDumps=.TRUE.,
(PID.TID 0000.0001) ># TheCalendar='model',
(PID.TID 0000.0001) > startDate_1=19920101,
(PID.TID 0000.0001) > startDate_2=120000,
(PID.TID 0000.0001) > /
(PID.TID 0000.0001) 
(PID.TID 0000.0001) CAL_READPARMS: finished reading data.cal
(PID.TID 0000.0001) EXF_READPARMS: opening data.exf
(PID.TID 0000.0001)  OPEN_COPY_DATA_FILE: opening file data.exf
(PID.TID 0000.0001) // =======================================================
(PID.TID 0000.0001) // Parameter file "data.exf"
(PID.TID 0000.0001) // =======================================================
(PID.TID 0000.0001) ># *********************
(PID.TID 0000.0001) ># External Forcing Data
(PID.TID 0000.0001) ># *********************
(PID.TID 0000.0001) >#
(PID.TID 0000.0001) > &EXF_NML_01
(PID.TID 0000.0001) >#
(PID.TID 0000.0001) > useAtmWind        = .FALSE.,
(PID.TID 0000.0001) >#NCEP VALUES:
(PID.TID 0000.0001) ># exf_albedo        = 0.15,
(PID.TID 0000.0001) ># exf_scal_BulkCdn  = 1.015,
(PID.TID 0000.0001) >#
(PID.TID 0000.0001) >#TO COMBINE WITH ALLOW_ZENITH_ANGLE:
(PID.TID 0000.0001) > exf_albedo        = 0.1,
(PID.TID 0000.0001) > useExfZenIncoming = .TRUE.,
(PID.TID 0000.0001) > select_ZenAlbedo  = 1,
(PID.TID 0000.0001) >#
(PID.TID 0000.0001) > ocean_emissivity = 0.97,
(PID.TID 0000.0001) > ice_emissivity = 0.95,
(PID.TID 0000.0001) > snow_emissivity = 0.95,
(PID.TID 0000.0001) >#
(PID.TID 0000.0001) > exf_iprec         = 32,
(PID.TID 0000.0001) > exf_yftype        = 'RL',
(PID.TID 0000.0001) > useExfYearlyFields= .TRUE.,
(PID.TID 0000.0001) > useExfCheckRange  = .FALSE.,
(PID.TID 0000.0001) > /
(PID.TID 0000.0001) >#
(PID.TID 0000.0001) > &EXF_NML_02
(PID.TID 0000.0001) > ustressfile       = 'EIG_ustr',
(PID.TID 0000.0001) > vstressfile       = 'EIG_vstr',
(PID.TID 0000.0001) > atempfile         = 'EIG_tmp2m_degC',
(PID.TID 0000.0001) > aqhfile           = 'EIG_spfh2m',
(PID.TID 0000.0001) > precipfile        = 'EIG_rain',
(PID.TID 0000.0001) ># uwindfile         = 'EIG_u10m',
(PID.TID 0000.0001) ># vwindfile         = 'EIG_v10m',
(PID.TID 0000.0001) > wspeedfile        = 'EIG_wspeed',
(PID.TID 0000.0001) > swdownfile        = 'EIG_dsw',
(PID.TID 0000.0001) > lwdownfile        = 'EIG_dlw',
(PID.TID 0000.0001) >### apressurefile     = 'EIG_pres',
(PID.TID 0000.0001) >#
(PID.TID 0000.0001) > ustressstartdate1   = 19920101,
(PID.TID 0000.0001) > ustressstartdate2   = 030000,
(PID.TID 0000.0001) > ustressperiod       = 21600.0,
(PID.TID 0000.0001) >#
(PID.TID 0000.0001) > vstressstartdate1   = 19920101,
(PID.TID 0000.0001) > vstressstartdate2   = 030000,
(PID.TID 0000.0001) > vstressperiod       = 21600.0,
(PID.TID 0000.0001) >#
(PID.TID 0000.0001) > atempstartdate1   = 19920101,
(PID.TID 0000.0001) > atempstartdate2   = 030000,
(PID.TID 0000.0001) > atempperiod       = 21600.0,
(PID.TID 0000.0001) >#
(PID.TID 0000.0001) > aqhstartdate1     = 19920101,
(PID.TID 0000.0001) > aqhstartdate2     = 030000,
(PID.TID 0000.0001) > aqhperiod         = 21600.0,
(PID.TID 0000.0001) >#
(PID.TID 0000.0001) > precipstartdate1  = 19920101,
(PID.TID 0000.0001) > precipstartdate2  = 030000,
(PID.TID 0000.0001) > precipperiod      = 21600.0,
(PID.TID 0000.0001) >#
(PID.TID 0000.0001) > runofffile        = 'runoff-2d-Fekete-1deg-mon-V4-SMOOTH.bin',
(PID.TID 0000.0001) > runoffperiod      = -12,
(PID.TID 0000.0001) >#
(PID.TID 0000.0001) > uwindstartdate1   = 19920101,
(PID.TID 0000.0001) > uwindstartdate2   = 030000,
(PID.TID 0000.0001) > uwindperiod       = 21600.0,
(PID.TID 0000.0001) >#
(PID.TID 0000.0001) > vwindstartdate1   = 19920101,
(PID.TID 0000.0001) > vwindstartdate2   = 030000,
(PID.TID 0000.0001) > vwindperiod       = 21600.0,
(PID.TID 0000.0001) >#
(PID.TID 0000.0001) > wspeedstartdate1   = 19920101,
(PID.TID 0000.0001) > wspeedstartdate2   = 030000,
(PID.TID 0000.0001) > wspeedperiod       = 21600.0,
(PID.TID 0000.0001) >#
(PID.TID 0000.0001) > swdownstartdate1  = 19920101,
(PID.TID 0000.0001) > swdownstartdate2  = 030000,
(PID.TID 0000.0001) > swdownperiod      = 21600.0,
(PID.TID 0000.0001) >#
(PID.TID 0000.0001) > lwdownstartdate1  = 19920101,
(PID.TID 0000.0001) > lwdownstartdate2  = 030000,
(PID.TID 0000.0001) > lwdownperiod      = 21600.0,
(PID.TID 0000.0001) >#
(PID.TID 0000.0001) > apressurestartdate1   = 19920101,
(PID.TID 0000.0001) > apressurestartdate2   = 030000,
(PID.TID 0000.0001) > apressureperiod       = 21600.0,
(PID.TID 0000.0001) >#
(PID.TID 0000.0001) > climsstperiod     = -12.,
(PID.TID 0000.0001) >#climsssfile       = 'SSS_WPv1_M_eccollc_90x50.bin',
(PID.TID 0000.0001) > climsssperiod     = -12.,
(PID.TID 0000.0001) >#climsssTauRelax   = 15768000.,
(PID.TID 0000.0001) > /
(PID.TID 0000.0001) >#
(PID.TID 0000.0001) > &EXF_NML_03
(PID.TID 0000.0001) >#NOT FOR EIG exf_offset_atemp  = 273.3971,
(PID.TID 0000.0001) > exf_offset_atemp  = 273.15,
(PID.TID 0000.0001) > exf_inscal_swdown = -1.0,
(PID.TID 0000.0001) > exf_inscal_lwdown = -1.0,
(PID.TID 0000.0001) > exf_inscal_ustress = -1.0,
(PID.TID 0000.0001) > exf_inscal_vstress = -1.0,
(PID.TID 0000.0001) > /
(PID.TID 0000.0001) >#
(PID.TID 0000.0001) > &EXF_NML_04
(PID.TID 0000.0001) > runoff_interpMethod = 0,
(PID.TID 0000.0001) > climsss_interpMethod = 0,
(PID.TID 0000.0001) >#
(PID.TID 0000.0001) > ustress_lon0        =   0.0000000D0,
(PID.TID 0000.0001) > ustress_lon_inc     =   0.7031250D0,
(PID.TID 0000.0001) > ustress_lat0        = -89.4628220D0,
(PID.TID 0000.0001) > ustress_lat_inc     = 0.6958694,0.6999817,0.7009048,0.7012634,0.7014313,
(PID.TID 0000.0001) >                     245*0.7017418,
(PID.TID 0000.0001) >                     0.7014313,0.7012634,0.7009048,0.6999817,0.6958694
(PID.TID 0000.0001) > ustress_nlon        = 512,
(PID.TID 0000.0001) > ustress_nlat        = 256,
(PID.TID 0000.0001) >#
(PID.TID 0000.0001) > vstress_lon0        =   0.0000000D0,
(PID.TID 0000.0001) > vstress_lon_inc     =   0.7031250D0,
(PID.TID 0000.0001) > vstress_lat0        = -89.4628220D0,
(PID.TID 0000.0001) > vstress_lat_inc     = 0.6958694,0.6999817,0.7009048,0.7012634,0.7014313,
(PID.TID 0000.0001) >                     245*0.7017418,
(PID.TID 0000.0001) >                     0.7014313,0.7012634,0.7009048,0.6999817,0.6958694
(PID.TID 0000.0001) > vstress_nlon        = 512,
(PID.TID 0000.0001) > vstress_nlat        = 256,
(PID.TID 0000.0001) >#
(PID.TID 0000.0001) > atemp_lon0        =   0.0000000D0,
(PID.TID 0000.0001) > atemp_lon_inc     =   0.7031250D0,
(PID.TID 0000.0001) > atemp_lat0        = -89.4628220D0,
(PID.TID 0000.0001) > atemp_lat_inc     = 0.6958694,0.6999817,0.7009048,0.7012634,0.7014313,
(PID.TID 0000.0001) >                     245*0.7017418,
(PID.TID 0000.0001) >                     0.7014313,0.7012634,0.7009048,0.6999817,0.6958694
(PID.TID 0000.0001) > atemp_nlon        = 512,
(PID.TID 0000.0001) > atemp_nlat        = 256,
(PID.TID 0000.0001) >#
(PID.TID 0000.0001) > aqh_lon0        =   0.0000000D0,
(PID.TID 0000.0001) > aqh_lon_inc     =   0.7031250D0,
(PID.TID 0000.0001) > aqh_lat0        = -89.4628220D0,
(PID.TID 0000.0001) > aqh_lat_inc     = 0.6958694,0.6999817,0.7009048,0.7012634,0.7014313,
(PID.TID 0000.0001) >                     245*0.7017418,
(PID.TID 0000.0001) >                     0.7014313,0.7012634,0.7009048,0.6999817,0.6958694
(PID.TID 0000.0001) > aqh_nlon        = 512,
(PID.TID 0000.0001) > aqh_nlat        = 256,
(PID.TID 0000.0001) >#
(PID.TID 0000.0001) > precip_lon0        =   0.0000000D0,
(PID.TID 0000.0001) > precip_lon_inc     =   0.7031250D0,
(PID.TID 0000.0001) > precip_lat0        = -89.4628220D0,
(PID.TID 0000.0001) > precip_lat_inc     = 0.6958694,0.6999817,0.7009048,0.7012634,0.7014313,
(PID.TID 0000.0001) >                     245*0.7017418,
(PID.TID 0000.0001) >                     0.7014313,0.7012634,0.7009048,0.6999817,0.6958694
(PID.TID 0000.0001) > precip_nlon        = 512,
(PID.TID 0000.0001) > precip_nlat        = 256,
(PID.TID 0000.0001) >#
(PID.TID 0000.0001) > uwind_lon0        =   0.0000000D0,
(PID.TID 0000.0001) > uwind_lon_inc     =   0.7031250D0,
(PID.TID 0000.0001) > uwind_lat0        = -89.4628220D0,
(PID.TID 0000.0001) > uwind_lat_inc     = 0.6958694,0.6999817,0.7009048,0.7012634,0.7014313,
(PID.TID 0000.0001) >                     245*0.7017418,
(PID.TID 0000.0001) >                     0.7014313,0.7012634,0.7009048,0.6999817,0.6958694
(PID.TID 0000.0001) > uwind_nlon        = 512,
(PID.TID 0000.0001) > uwind_nlat        = 256,
(PID.TID 0000.0001) >#
(PID.TID 0000.0001) > vwind_lon0        =   0.0000000D0,
(PID.TID 0000.0001) > vwind_lon_inc     =   0.7031250D0,
(PID.TID 0000.0001) > vwind_lat0        = -89.4628220D0,
(PID.TID 0000.0001) > vwind_lat_inc     = 0.6958694,0.6999817,0.7009048,0.7012634,0.7014313,
(PID.TID 0000.0001) >                     245*0.7017418,
(PID.TID 0000.0001) >                     0.7014313,0.7012634,0.7009048,0.6999817,0.6958694
(PID.TID 0000.0001) > vwind_nlon        = 512,
(PID.TID 0000.0001) > vwind_nlat        = 256,
(PID.TID 0000.0001) >#
(PID.TID 0000.0001) > wspeed_lon0        =   0.0000000D0,
(PID.TID 0000.0001) > wspeed_lon_inc     =   0.7031250D0,
(PID.TID 0000.0001) > wspeed_lat0        = -89.4628220D0,
(PID.TID 0000.0001) > wspeed_lat_inc     = 0.6958694,0.6999817,0.7009048,0.7012634,0.7014313,
(PID.TID 0000.0001) >                     245*0.7017418,
(PID.TID 0000.0001) >                     0.7014313,0.7012634,0.7009048,0.6999817,0.6958694
(PID.TID 0000.0001) > wspeed_nlon        = 512,
(PID.TID 0000.0001) > wspeed_nlat        = 256,
(PID.TID 0000.0001) >#
(PID.TID 0000.0001) > swdown_lon0        =   0.0000000D0,
(PID.TID 0000.0001) > swdown_lon_inc     =   0.7031250D0,
(PID.TID 0000.0001) > swdown_lat0        = -89.4628220D0,
(PID.TID 0000.0001) > swdown_lat_inc     = 0.6958694,0.6999817,0.7009048,0.7012634,0.7014313,
(PID.TID 0000.0001) >                     245*0.7017418,
(PID.TID 0000.0001) >                     0.7014313,0.7012634,0.7009048,0.6999817,0.6958694
(PID.TID 0000.0001) > swdown_nlon        = 512,
(PID.TID 0000.0001) > swdown_nlat        = 256,
(PID.TID 0000.0001) >#
(PID.TID 0000.0001) > lwdown_lon0        =   0.0000000D0,
(PID.TID 0000.0001) > lwdown_lon_inc     =   0.7031250D0,
(PID.TID 0000.0001) > lwdown_lat0        = -89.4628220D0,
(PID.TID 0000.0001) > lwdown_lat_inc     = 0.6958694,0.6999817,0.7009048,0.7012634,0.7014313,
(PID.TID 0000.0001) >                     245*0.7017418,
(PID.TID 0000.0001) >                     0.7014313,0.7012634,0.7009048,0.6999817,0.6958694
(PID.TID 0000.0001) > lwdown_nlon        = 512,
(PID.TID 0000.0001) > lwdown_nlat        = 256,
(PID.TID 0000.0001) >#
(PID.TID 0000.0001) > apressure_lon0        =   0.0000000D0,
(PID.TID 0000.0001) > apressure_lon_inc     =   0.7031250D0,
(PID.TID 0000.0001) > apressure_lat0        = -89.4628220D0,
(PID.TID 0000.0001) > apressure_lat_inc     = 0.6958694,0.6999817,0.7009048,0.7012634,0.7014313,
(PID.TID 0000.0001) >                     245*0.7017418,
(PID.TID 0000.0001) >                     0.7014313,0.7012634,0.7009048,0.6999817,0.6958694
(PID.TID 0000.0001) > apressure_nlon        = 512,
(PID.TID 0000.0001) > apressure_nlat        = 256,
(PID.TID 0000.0001) >#
(PID.TID 0000.0001) > /
(PID.TID 0000.0001) 
(PID.TID 0000.0001) EXF_READPARMS: reading EXF_NML_01
(PID.TID 0000.0001) EXF_READPARMS: reading EXF_NML_02
(PID.TID 0000.0001) EXF_READPARMS: reading EXF_NML_03
(PID.TID 0000.0001) EXF_READPARMS: reading EXF_NML_04
(PID.TID 0000.0001) EXF_READPARMS: finished reading data.exf
(PID.TID 0000.0001)  GGL90_READPARMS: opening data.ggl90
(PID.TID 0000.0001)  OPEN_COPY_DATA_FILE: opening file data.ggl90
(PID.TID 0000.0001) // =======================================================
(PID.TID 0000.0001) // Parameter file "data.ggl90"
(PID.TID 0000.0001) // =======================================================
(PID.TID 0000.0001) ># =====================================================================
(PID.TID 0000.0001) ># | Parameters for Gaspar et al. (1990)'s TKE vertical mixing scheme  |
(PID.TID 0000.0001) ># =====================================================================
(PID.TID 0000.0001) > &GGL90_PARM01
(PID.TID 0000.0001) ># GGL90taveFreq = 345600000.,
(PID.TID 0000.0001) ># GGL90dumpFreq = 86400.,
(PID.TID 0000.0001) ># GGL90writeState=.FALSE.,
(PID.TID 0000.0001) ># GGL90diffTKEh=3.e3,
(PID.TID 0000.0001) > GGL90alpha=30.,
(PID.TID 0000.0001) ># GGL90TKEFile = 'TKE_init.bin',
(PID.TID 0000.0001) > GGL90TKEmin  = 1.e-7,
(PID.TID 0000.0001) > GGL90TKEbottom = 1.e-6,
(PID.TID 0000.0001) > mxlMaxFlag =2,
(PID.TID 0000.0001) > mxlSurfFlag=.TRUE.,
(PID.TID 0000.0001) > /
(PID.TID 0000.0001) 
(PID.TID 0000.0001)  GGL90_READPARMS: finished reading data.ggl90
(PID.TID 0000.0001) // =======================================================
(PID.TID 0000.0001) // GGL90 configuration
(PID.TID 0000.0001) // =======================================================
(PID.TID 0000.0001) GGL90dumpFreq =   /* GGL90 state write out interval ( s ). */
(PID.TID 0000.0001)                 0.000000000000000E+00
(PID.TID 0000.0001)     ;
(PID.TID 0000.0001) GGL90taveFreq =   /* GGL90 averaging interval ( s ). */
(PID.TID 0000.0001)                 0.000000000000000E+00
(PID.TID 0000.0001)     ;
(PID.TID 0000.0001) GGL90mixingMAPS =   /* GGL90 IO flag. */
(PID.TID 0000.0001)                   F
(PID.TID 0000.0001)     ;
(PID.TID 0000.0001) GGL90writeState =   /* GGL90 IO flag. */
(PID.TID 0000.0001)                   F
(PID.TID 0000.0001)     ;
(PID.TID 0000.0001) GGL90ck =   /* GGL90 viscosity parameter. */
(PID.TID 0000.0001)                 1.000000000000000E-01
(PID.TID 0000.0001)     ;
(PID.TID 0000.0001) GGL90ceps =   /* GGL90 dissipation parameter. */
(PID.TID 0000.0001)                 7.000000000000000E-01
(PID.TID 0000.0001)     ;
(PID.TID 0000.0001) GGL90alpha =   /* GGL90 TKE diffusivity parameter. */
(PID.TID 0000.0001)                 3.000000000000000E+01
(PID.TID 0000.0001)     ;
(PID.TID 0000.0001) GGL90m2 =   /* GGL90 wind stress to vertical stress ratio. */
(PID.TID 0000.0001)                 3.750000000000000E+00
(PID.TID 0000.0001)     ;
(PID.TID 0000.0001) GGL90TKEmin =   /* GGL90 minimum kinetic energy ( m^2/s^2 ). */
(PID.TID 0000.0001)                 1.000000000000000E-07
(PID.TID 0000.0001)     ;
(PID.TID 0000.0001) GGL90TKEsurfMin =   /* GGL90 minimum surface kinetic energy ( m^2/s^2 ). */
(PID.TID 0000.0001)                 1.000000000000000E-04
(PID.TID 0000.0001)     ;
(PID.TID 0000.0001) GGL90TKEbottom =   /* GGL90 bottom kinetic energy ( m^2/s^2 ). */
(PID.TID 0000.0001)                 1.000000000000000E-06
(PID.TID 0000.0001)     ;
(PID.TID 0000.0001) GGL90viscMax =   /* GGL90 upper limit for viscosity ( m^2/s ). */
(PID.TID 0000.0001)                 1.000000000000000E+02
(PID.TID 0000.0001)     ;
(PID.TID 0000.0001) GGL90diffMax =   /* GGL90 upper limit for diffusivity ( m^2/s ). */
(PID.TID 0000.0001)                 1.000000000000000E+02
(PID.TID 0000.0001)     ;
(PID.TID 0000.0001) GGL90diffTKEh =   /* GGL90 horizontal diffusivity for TKE ( m^2/s ). */
(PID.TID 0000.0001)                 0.000000000000000E+00
(PID.TID 0000.0001)     ;
(PID.TID 0000.0001) GGL90mixingLengthMin =   /* GGL90 minimum mixing length ( m ). */
(PID.TID 0000.0001)                 1.000000000000000E-08
(PID.TID 0000.0001)     ;
(PID.TID 0000.0001) mxlMaxFlag =   /* Flag for limiting mixing-length method */
(PID.TID 0000.0001)                       2
(PID.TID 0000.0001)     ;
(PID.TID 0000.0001) mxlSurfFlag =   /* GGL90 flag for near surface mixing. */
(PID.TID 0000.0001)                   T
(PID.TID 0000.0001)     ;
(PID.TID 0000.0001) GGL90: GGL90TKEFile =
(PID.TID 0000.0001) // =======================================================
(PID.TID 0000.0001) // End of GGL90 config. summary
(PID.TID 0000.0001) // =======================================================
(PID.TID 0000.0001) 
(PID.TID 0000.0001)  GM_READPARMS: opening data.gmredi
(PID.TID 0000.0001)  OPEN_COPY_DATA_FILE: opening file data.gmredi
(PID.TID 0000.0001) // =======================================================
(PID.TID 0000.0001) // Parameter file "data.gmredi"
(PID.TID 0000.0001) // =======================================================
(PID.TID 0000.0001) ># GM+Redi package parameters:
(PID.TID 0000.0001) >#     GM_Small_Number  :: epsilon used in computing the slope
(PID.TID 0000.0001) >#     GM_slopeSqCutoff :: slope^2 cut-off value
(PID.TID 0000.0001) >
(PID.TID 0000.0001) >#-from MOM :
(PID.TID 0000.0001) ># GM_background_K: 	G & Mc.W  diffusion coefficient
(PID.TID 0000.0001) ># GM_maxSlope    :	max slope of isopycnals
(PID.TID 0000.0001) ># GM_Scrit       :	transition for scaling diffusion coefficient
(PID.TID 0000.0001) ># GM_Sd          :	half width scaling for diffusion coefficient
(PID.TID 0000.0001) ># GM_taper_scheme:	slope clipping or one of the tapering schemes
(PID.TID 0000.0001) ># GM_Kmin_horiz  :	horizontal diffusion minimum value
(PID.TID 0000.0001) >
(PID.TID 0000.0001) >#-Option parameters (needs to "define" options in GMREDI_OPTIONS.h")
(PID.TID 0000.0001) ># GM_isopycK     :	isopycnal diffusion coefficient (default=GM_background_K)
(PID.TID 0000.0001) ># GM_AdvForm     :	turn on GM Advective form       (default=Skew flux form)
(PID.TID 0000.0001) >
(PID.TID 0000.0001) > &GM_PARM01
(PID.TID 0000.0001) >  GM_Small_Number  = 1.D-20,
(PID.TID 0000.0001) >  GM_slopeSqCutoff = 1.D+08,
(PID.TID 0000.0001) >  GM_AdvForm         = .TRUE.,
(PID.TID 0000.0001) >  GM_isopycK         = 1.D+3,
(PID.TID 0000.0001) >  GM_background_K    = 1.D+3,
(PID.TID 0000.0001) >  GM_maxSlope        = 4.D-3,
(PID.TID 0000.0001) >  GM_taper_scheme    = 'stableGmAdjTap',
(PID.TID 0000.0001) >  GM_Kmin_horiz      = 100.,
(PID.TID 0000.0001) >  GM_Scrit           = 4.D-3,
(PID.TID 0000.0001) >  GM_Sd              = 1.D-3,
(PID.TID 0000.0001) >#
(PID.TID 0000.0001) >###  GM_Visbeck_alpha   = 1.5D-2,
(PID.TID 0000.0001) >###  GM_Visbeck_alpha   = 0.D0,
(PID.TID 0000.0001) >###  GM_Visbeck_length  = 2.D+5,
(PID.TID 0000.0001) >###  GM_Visbeck_depth   = 1.D+3,
(PID.TID 0000.0001) >###  GM_Visbeck_maxval_K= 2.5D+3,
(PID.TID 0000.0001) > /
(PID.TID 0000.0001) >
(PID.TID 0000.0001) >
(PID.TID 0000.0001) 
(PID.TID 0000.0001)  GM_READPARMS: finished reading data.gmredi
(PID.TID 0000.0001) 
(PID.TID 0000.0001)  SEAICE_READPARMS: opening data.seaice
(PID.TID 0000.0001)  OPEN_COPY_DATA_FILE: opening file data.seaice
(PID.TID 0000.0001) // =======================================================
(PID.TID 0000.0001) // Parameter file "data.seaice"
(PID.TID 0000.0001) // =======================================================
(PID.TID 0000.0001) ># SEAICE parameters
(PID.TID 0000.0001) > &SEAICE_PARM01
(PID.TID 0000.0001) >      SEAICEuseTILT=.FALSE.,
(PID.TID 0000.0001) >      SEAICEpresH0=2.,
(PID.TID 0000.0001) >      SEAICEpresPow0=1,
(PID.TID 0000.0001) >      SEAICEpresPow1=1,
(PID.TID 0000.0001) >      SEAICE_strength = 2.25e4,
(PID.TID 0000.0001) >      SEAICE_drag=0.001,
(PID.TID 0000.0001) >      SEAICE_drag_south=0.002,
(PID.TID 0000.0001) >#
(PID.TID 0000.0001) >      SEAICE_multDim=1,
(PID.TID 0000.0001) >      SEAICErestoreUnderIce=.TRUE.,
(PID.TID 0000.0001) >      SEAICE_area_max=0.97,
(PID.TID 0000.0001) >      SEAICE_salt0=4.,
(PID.TID 0000.0001) >      LSR_ERROR          = 2.e-4,
(PID.TID 0000.0001) >      SEAICEuseDYNAMICS  = .TRUE.,
(PID.TID 0000.0001) >      MIN_ATEMP          = -40.,
(PID.TID 0000.0001) >      MIN_TICE           = -40.,
(PID.TID 0000.0001) >      SEAICEadvScheme    = 30,
(PID.TID 0000.0001) >      SEAICEuseFluxForm = .TRUE.,
(PID.TID 0000.0001) >      SEAICEadvSnow      = .TRUE.,
(PID.TID 0000.0001) >#      SEAICEadvSalt      = .TRUE.,
(PID.TID 0000.0001) >      SEAICEdiffKhHeff   = 400.,
(PID.TID 0000.0001) >      SEAICEdiffKhArea   = 400.,
(PID.TID 0000.0001) >      SEAICEdiffKhSnow   = 400.,
(PID.TID 0000.0001) >#      SEAICEdiffKhSalt   = 400.,
(PID.TID 0000.0001) >      SEAICEuseFlooding  = .TRUE.,
(PID.TID 0000.0001) >      SEAICE_mcPheePiston= 3.858024691358025E-05,
(PID.TID 0000.0001) >      SEAICE_frazilFrac  = 1.,
(PID.TID 0000.0001) >      SEAICE_mcPheeTaper = 0.,
(PID.TID 0000.0001) >      SEAICE_areaLossFormula=2,
(PID.TID 0000.0001) >      SEAICEheatConsFix  = .TRUE.,
(PID.TID 0000.0001) >      SEAICE_tempFrz0    = -1.96,
(PID.TID 0000.0001) >      SEAICE_dTempFrz_dS = 0.,
(PID.TID 0000.0001) >      SEAICEuseMetricTerms = .TRUE.,
(PID.TID 0000.0001) >      SEAICE_no_slip     = .TRUE.,
(PID.TID 0000.0001) >      SEAICE_clipVelocities = .TRUE.,
(PID.TID 0000.0001) >#take 33% out of (1-albedo)
(PID.TID 0000.0001) >      SEAICE_dryIceAlb   = 0.84,
(PID.TID 0000.0001) >      SEAICE_wetIceAlb   = 0.78,
(PID.TID 0000.0001) >      SEAICE_drySnowAlb  = 0.90,
(PID.TID 0000.0001) >      SEAICE_wetSnowAlb  = 0.8 ,
(PID.TID 0000.0001) >#default albedos
(PID.TID 0000.0001) >      SEAICE_dryIceAlb_south   = 0.75
(PID.TID 0000.0001) >      SEAICE_wetIceAlb_south   = 0.66
(PID.TID 0000.0001) >      SEAICE_drySnowAlb_south  = 0.84
(PID.TID 0000.0001) >      SEAICE_wetSnowAlb_south  = 0.7
(PID.TID 0000.0001) > /
(PID.TID 0000.0001) >#
(PID.TID 0000.0001) > &SEAICE_PARM02
(PID.TID 0000.0001) > /
(PID.TID 0000.0001) >
(PID.TID 0000.0001) 
(PID.TID 0000.0001)  SEAICE_READPARMS: finished reading data.seaice
(PID.TID 0000.0001) SALT_PLUME_READPARMS: opening data.salt_plume
(PID.TID 0000.0001)  OPEN_COPY_DATA_FILE: opening file data.salt_plume
(PID.TID 0000.0001) // =======================================================
(PID.TID 0000.0001) // Parameter file "data.salt_plume"
(PID.TID 0000.0001) // =======================================================
(PID.TID 0000.0001) > &SALT_PLUME_PARM01
(PID.TID 0000.0001) ># SaltPlumeCriterion = 0.4D0,
(PID.TID 0000.0001) > SPsalFRAC= 0.5D0,
(PID.TID 0000.0001) >#SPsalFRAC= 0.25D0,
(PID.TID 0000.0001) >#SPsalFRAC= 0.0D0,
(PID.TID 0000.0001) > &
(PID.TID 0000.0001) 
(PID.TID 0000.0001) SALT_PLUME_READPARMS: finished reading data.salt_plume
(PID.TID 0000.0001) AUTODIFF_READPARMS: opening data.autodiff
(PID.TID 0000.0001)  OPEN_COPY_DATA_FILE: opening file data.autodiff
(PID.TID 0000.0001) // =======================================================
(PID.TID 0000.0001) // Parameter file "data.autodiff"
(PID.TID 0000.0001) // =======================================================
(PID.TID 0000.0001) ># =========================
(PID.TID 0000.0001) ># pkg AUTODIFF parameters :
(PID.TID 0000.0001) ># =========================
(PID.TID 0000.0001) >#  inAdExact :: get an exact adjoint (no approximation) (def=.True.)
(PID.TID 0000.0001) >#
(PID.TID 0000.0001) > &AUTODIFF_PARM01
(PID.TID 0000.0001) ># inAdExact = .FALSE.,
(PID.TID 0000.0001) > useSEAICEinAdMode = .FALSE.,
(PID.TID 0000.0001) ># useKPPinAdMode = .FALSE.,
(PID.TID 0000.0001) ># useGMRediInAdMode = .FALSE.,
(PID.TID 0000.0001) > useGGL90inAdMode = .FALSE.,
(PID.TID 0000.0001) > useSALT_PLUMEinAdMode = .FALSE.,
(PID.TID 0000.0001) > viscFacInAd = 2.,
(PID.TID 0000.0001) > &
(PID.TID 0000.0001) 
(PID.TID 0000.0001) AUTODIFF_READPARMS: finished reading data.autodiff
(PID.TID 0000.0001) // ===================================
(PID.TID 0000.0001) // AUTODIFF parameters :
(PID.TID 0000.0001) // ===================================
(PID.TID 0000.0001) inAdExact = /* get an exact adjoint (no approximation) */
(PID.TID 0000.0001)                   T
(PID.TID 0000.0001)     ;
(PID.TID 0000.0001) useKPPinAdMode = /* use KPP in adjoint mode */
(PID.TID 0000.0001)                   F
(PID.TID 0000.0001)     ;
(PID.TID 0000.0001) useGMRediInAdMode = /* use GMRedi in adjoint mode */
(PID.TID 0000.0001)                   T
(PID.TID 0000.0001)     ;
(PID.TID 0000.0001) useSEAICEinAdMode = /* use SEAICE in adjoint mode */
(PID.TID 0000.0001)                   F
(PID.TID 0000.0001)     ;
(PID.TID 0000.0001) useGGL90inAdMode = /* use GGL90 in adjoint mode */
(PID.TID 0000.0001)                   F
(PID.TID 0000.0001)     ;
(PID.TID 0000.0001) useSALT_PLUMEinAdMode = /* use SALT_PLUME in adjoint mode */
(PID.TID 0000.0001)                   F
(PID.TID 0000.0001)     ;
(PID.TID 0000.0001) SEAICEuseDYNAMICSswitchInAd = /* switch On/Off SEAICE Dyn in AD mode */
(PID.TID 0000.0001)                   F
(PID.TID 0000.0001)     ;
(PID.TID 0000.0001) SEAICEuseFREEDRIFTswitchInAd= /* switch On/Off Free-Drift in AD mode */
(PID.TID 0000.0001)                   F
(PID.TID 0000.0001)     ;
(PID.TID 0000.0001) SEAICEapproxLevInAd = /* -1:SEAICE_FAKE, >0:other adjoint approximation */
(PID.TID 0000.0001)                       0
(PID.TID 0000.0001)     ;
(PID.TID 0000.0001) dumpAdVarExch = /* control adexch before dumpinp */
(PID.TID 0000.0001)                       2
(PID.TID 0000.0001)     ;
(PID.TID 0000.0001) mon_AdVarExch = /* control adexch before monitor */
(PID.TID 0000.0001)                       2
(PID.TID 0000.0001)     ;
(PID.TID 0000.0001) viscFacInAd = /* viscosity factor for adjoint */
(PID.TID 0000.0001)                 2.000000000000000E+00
(PID.TID 0000.0001)     ;
(PID.TID 0000.0001) 
(PID.TID 0000.0001) OPTIM_READPARMS: opening data.optim
(PID.TID 0000.0001)  OPEN_COPY_DATA_FILE: opening file data.optim
(PID.TID 0000.0001) // =======================================================
(PID.TID 0000.0001) // Parameter file "data.optim"
(PID.TID 0000.0001) // =======================================================
(PID.TID 0000.0001) >#
(PID.TID 0000.0001) ># ********************************
(PID.TID 0000.0001) ># Off-line optimization parameters
(PID.TID 0000.0001) ># ********************************
(PID.TID 0000.0001) > &OPTIM
(PID.TID 0000.0001) > optimcycle=0,
(PID.TID 0000.0001) > /
(PID.TID 0000.0001) 
(PID.TID 0000.0001) OPTIM_READPARMS: finished reading data.optim
(PID.TID 0000.0001) CTRL_READPARMS: opening data.ctrl
(PID.TID 0000.0001)  OPEN_COPY_DATA_FILE: opening file data.ctrl
(PID.TID 0000.0001) // =======================================================
(PID.TID 0000.0001) // Parameter file "data.ctrl"
(PID.TID 0000.0001) // =======================================================
(PID.TID 0000.0001) ># *********************
(PID.TID 0000.0001) ># ECCO controlvariables
(PID.TID 0000.0001) ># *********************
(PID.TID 0000.0001) > &ctrl_nml
(PID.TID 0000.0001) >#
(PID.TID 0000.0001) > doSinglePrecTapelev=.TRUE.,
(PID.TID 0000.0001) > ctrlSmoothCorrel2D=.FALSE.,
(PID.TID 0000.0001) > ctrlSmoothCorrel3D=.FALSE.,
(PID.TID 0000.0001) >#to start from given xx*00.data files
(PID.TID 0000.0001) ># doinitxx = .FALSE.,
(PID.TID 0000.0001) ># doMainUnpack = .FALSE.,
(PID.TID 0000.0001) >#to start from given ecco_ctrl... files
(PID.TID 0000.0001) ># doinitxx = .FALSE.,
(PID.TID 0000.0001) >#
(PID.TID 0000.0001) >#doPackDiag = .TRUE.,
(PID.TID 0000.0001) > forcingPrecond=20.,
(PID.TID 0000.0001) ># doZscalePack = .TRUE.,
(PID.TID 0000.0001) ># doZscaleUnpack = .TRUE.,
(PID.TID 0000.0001) ># delZexp = -1.,
(PID.TID 0000.0001) >#
(PID.TID 0000.0001) > xx_theta_file='xx_theta',
(PID.TID 0000.0001) > xx_salt_file='xx_salt',
(PID.TID 0000.0001) >#
(PID.TID 0000.0001) > xx_hflux_file='xx_hfl',
(PID.TID 0000.0001) > xx_hfluxstartdate1=19920101,
(PID.TID 0000.0001) > xx_hfluxstartdate2=60000,
(PID.TID 0000.0001) > xx_hfluxperiod=1209600.0,
(PID.TID 0000.0001) >#
(PID.TID 0000.0001) > xx_sflux_file='xx_sfl',
(PID.TID 0000.0001) > xx_sfluxstartdate1=19920101,
(PID.TID 0000.0001) > xx_sfluxstartdate2=60000,
(PID.TID 0000.0001) > xx_sfluxperiod=1209600.0,
(PID.TID 0000.0001) >#
(PID.TID 0000.0001) > xx_tauu_file='xx_tauu',
(PID.TID 0000.0001) > xx_tauustartdate1=19920101,
(PID.TID 0000.0001) > xx_tauustartdate2=60000,
(PID.TID 0000.0001) > xx_tauuperiod=1209600.0,
(PID.TID 0000.0001) >#
(PID.TID 0000.0001) > xx_tauv_file='xx_tauv',
(PID.TID 0000.0001) > xx_tauvstartdate1=19920101,
(PID.TID 0000.0001) > xx_tauvstartdate2=60000,
(PID.TID 0000.0001) > xx_tauvperiod=1209600.0,
(PID.TID 0000.0001) >#
(PID.TID 0000.0001) > xx_atemp_file='xx_atemp',
(PID.TID 0000.0001) > xx_atempstartdate1=19920101,
(PID.TID 0000.0001) > xx_atempstartdate2=60000,
(PID.TID 0000.0001) > xx_atempperiod=1209600.0,
(PID.TID 0000.0001) >#
(PID.TID 0000.0001) > xx_aqh_file='xx_aqh',
(PID.TID 0000.0001) > xx_aqhstartdate1=19920101,
(PID.TID 0000.0001) > xx_aqhstartdate2=60000,
(PID.TID 0000.0001) > xx_aqhperiod=1209600.0,
(PID.TID 0000.0001) >#
(PID.TID 0000.0001) > xx_uwind_file='xx_uwind',
(PID.TID 0000.0001) > xx_uwindstartdate1=19920101,
(PID.TID 0000.0001) > xx_uwindstartdate2=60000,
(PID.TID 0000.0001) > xx_uwindperiod=1209600.0,
(PID.TID 0000.0001) >#
(PID.TID 0000.0001) > xx_vwind_file='xx_vwind',
(PID.TID 0000.0001) > xx_vwindstartdate1=19920101,
(PID.TID 0000.0001) > xx_vwindstartdate2=60000,
(PID.TID 0000.0001) > xx_vwindperiod=1209600.0,
(PID.TID 0000.0001) >#
(PID.TID 0000.0001) > xx_precip_file='xx_precip',
(PID.TID 0000.0001) > xx_precipstartdate1=19920101,
(PID.TID 0000.0001) > xx_precipstartdate2=60000,
(PID.TID 0000.0001) > xx_precipperiod=1209600.0,
(PID.TID 0000.0001) >#
(PID.TID 0000.0001) > xx_swdown_file='xx_swdown',
(PID.TID 0000.0001) > xx_swdownstartdate1=19920101,
(PID.TID 0000.0001) > xx_swdownstartdate2=60000,
(PID.TID 0000.0001) > xx_swdownperiod=1209600.0,
(PID.TID 0000.0001) >#
(PID.TID 0000.0001) > xx_swflux_file='xx_swflux',
(PID.TID 0000.0001) > xx_swfluxstartdate1=19920101,
(PID.TID 0000.0001) > xx_swfluxstartdate2=60000,
(PID.TID 0000.0001) > xx_swfluxperiod=1209600.0,
(PID.TID 0000.0001) >#
(PID.TID 0000.0001) > xx_lwdown_file='xx_lwdown',
(PID.TID 0000.0001) > xx_lwdownstartdate1=19920101,
(PID.TID 0000.0001) > xx_lwdownstartdate2=60000,
(PID.TID 0000.0001) > xx_lwdownperiod=1209600.0,
(PID.TID 0000.0001) >#
(PID.TID 0000.0001) > xx_lwflux_file='xx_lwflux',
(PID.TID 0000.0001) > xx_lwfluxstartdate1=19920101,
(PID.TID 0000.0001) > xx_lwfluxstartdate2=60000,
(PID.TID 0000.0001) > xx_lwfluxperiod=1209600.0,
(PID.TID 0000.0001) >#
(PID.TID 0000.0001) > /
(PID.TID 0000.0001) >#
(PID.TID 0000.0001) ># *********************
(PID.TID 0000.0001) ># names for ctrl_pack/unpack
(PID.TID 0000.0001) ># *********************
(PID.TID 0000.0001) > &ctrl_packnames
(PID.TID 0000.0001) > ctrlname='ecco_ctrl',
(PID.TID 0000.0001) > costname='ecco_cost',
(PID.TID 0000.0001) > /
(PID.TID 0000.0001) >#
(PID.TID 0000.0001) ># *********************
(PID.TID 0000.0001) ># names for CTRL_GENARR, CTRL_GENTIM
(PID.TID 0000.0001) ># *********************
(PID.TID 0000.0001) >#&CTRL_NML_GENARR
(PID.TID 0000.0001) >#xx_gentim2d_weight(1) = 'wprecip.data',
(PID.TID 0000.0001) >#xx_gentim2d_file(1)='xx_gen_precip',
(PID.TID 0000.0001) >#xx_gentim2d_startdate1(1)=19920101,
(PID.TID 0000.0001) >#xx_gentim2d_startdate2(1)=60000,
(PID.TID 0000.0001) >#xx_gentim2d_period(1)=1209600.0,
(PID.TID 0000.0001) >#gentim2dPrecond(1)=0.2,
(PID.TID 0000.0001) >#mult_gentim2d(1) = 1.,
(PID.TID 0000.0001) >#xx_gentim2d_glosum(1)=.TRUE.,
(PID.TID 0000.0001) >#xx_gentim2d_cumsum(1)=.TRUE.,
(PID.TID 0000.0001) >#
(PID.TID 0000.0001) >#/
(PID.TID 0000.0001) >
(PID.TID 0000.0001) 
(PID.TID 0000.0001) CTRL_READPARMS: finished reading data.ctrl
(PID.TID 0000.0001) useSmoothCorrel2DinAdMode = /* use ctrlSmoothCorrel2D in adjoint mode */
(PID.TID 0000.0001)                   F
(PID.TID 0000.0001)     ;
(PID.TID 0000.0001) COST_READPARMS: opening data.cost
(PID.TID 0000.0001)  OPEN_COPY_DATA_FILE: opening file data.cost
(PID.TID 0000.0001) // =======================================================
(PID.TID 0000.0001) // Parameter file "data.cost"
(PID.TID 0000.0001) // =======================================================
(PID.TID 0000.0001) >#
(PID.TID 0000.0001) >#
(PID.TID 0000.0001) ># ******************
(PID.TID 0000.0001) ># cost function
(PID.TID 0000.0001) ># ******************
(PID.TID 0000.0001) > &COST_NML
(PID.TID 0000.0001) > /
(PID.TID 0000.0001) 
(PID.TID 0000.0001) COST_READPARMS: finished reading data.cost
(PID.TID 0000.0001) ECCO_READPARMS: opening data.ecco
(PID.TID 0000.0001)  OPEN_COPY_DATA_FILE: opening file data.ecco
(PID.TID 0000.0001) // =======================================================
(PID.TID 0000.0001) // Parameter file "data.ecco"
(PID.TID 0000.0001) // =======================================================
(PID.TID 0000.0001) >#
(PID.TID 0000.0001) >#
(PID.TID 0000.0001) ># ******************
(PID.TID 0000.0001) ># ECCO cost function
(PID.TID 0000.0001) ># ******************
(PID.TID 0000.0001) >#
(PID.TID 0000.0001) > &ECCO_COST_NML
(PID.TID 0000.0001) >#
(PID.TID 0000.0001) > data_errfile    = 'data.err',
(PID.TID 0000.0001) > tbarfile        = 'tbar',
(PID.TID 0000.0001) > sbarfile        = 'sbar',
(PID.TID 0000.0001) > psbarfile       = 'psbar',
(PID.TID 0000.0001) > ubarfile        = 'ubar',
(PID.TID 0000.0001) > vbarfile        = 'vbar',
(PID.TID 0000.0001) > hfluxmeanbarfile    = 'hfluxmeanbar',
(PID.TID 0000.0001) > sfluxmeanbarfile    = 'sfluxmeanbar',
(PID.TID 0000.0001) >#
(PID.TID 0000.0001) > temp0errfile     = 'sigma_T_atlas2_eccollc.bin',
(PID.TID 0000.0001) > salt0errfile     = 'sigma_S_atlas2_eccollc.bin',
(PID.TID 0000.0001) >#
(PID.TID 0000.0001) > atemp_errfile    = 'cap_sigma_tmp2m_degC_eccollc.bin',
(PID.TID 0000.0001) > aqh_errfile      = 'cap_sigma_spfh2m_eccollc.bin',
(PID.TID 0000.0001) > tauu_errfile    = 'cap_sigma_ustr_eccollc.bin',
(PID.TID 0000.0001) > tauv_errfile    = 'cap_sigma_vstr_eccollc.bin',
(PID.TID 0000.0001) > precip_errfile   = 'cap_sigma_rain_eccollc.bin',
(PID.TID 0000.0001) > swdown_errfile   = 'cap_sigma_dsw_eccollc.bin',
(PID.TID 0000.0001) > lwdown_errfile   = 'cap_sigma_dlw_eccollc.bin',
(PID.TID 0000.0001) >#
(PID.TID 0000.0001) > whflux0              = 20.0,
(PID.TID 0000.0001) > wsflux0              = 3.0E-8,
(PID.TID 0000.0001) > wtau0                = 2.0E-2,
(PID.TID 0000.0001) >#
(PID.TID 0000.0001) > watemp0              = 1.0,
(PID.TID 0000.0001) > waqh0                = 0.5E-3,
(PID.TID 0000.0001) > wprecip0             = 1.5E-8,
(PID.TID 0000.0001) > wswflux0             = 15.0,
(PID.TID 0000.0001) > wswdown0             = 15.0,
(PID.TID 0000.0001) > wwind0               = 1.0,
(PID.TID 0000.0001) >#
(PID.TID 0000.0001) > wkapgm0              = 5.0E3,
(PID.TID 0000.0001) > wkapredi0            = 5.0E3,
(PID.TID 0000.0001) > wdiffkr0             = 1.0E-4,
(PID.TID 0000.0001) > wedtau0              = 1.0E0,
(PID.TID 0000.0001) > wbottomdrag0         = 1.0E-5,
(PID.TID 0000.0001) >#
(PID.TID 0000.0001) > wmean_hflux          = 60.0,
(PID.TID 0000.0001) > wmean_sflux          = 3.2E-8,
(PID.TID 0000.0001) > wmean_tau            = 0.2,
(PID.TID 0000.0001) >#
(PID.TID 0000.0001) > wmean_atemp          = 8.0,
(PID.TID 0000.0001) > wmean_aqh            = 4.0E-3,
(PID.TID 0000.0001) > wmean_precip         = 9.0E-8,
(PID.TID 0000.0001) > wmean_swflux         = 90.0,
(PID.TID 0000.0001) > wmean_swdown         = 90.0,
(PID.TID 0000.0001) > wmean_wind           = 8.0,
(PID.TID 0000.0001) >#
(PID.TID 0000.0001) > mult_temp0  = 1.,
(PID.TID 0000.0001) > mult_salt0  = 1.,
(PID.TID 0000.0001) >#
(PID.TID 0000.0001) > mult_hflux  = 1.,
(PID.TID 0000.0001) > mult_sflux  = 1.,
(PID.TID 0000.0001) > mult_tauu   = 1.,
(PID.TID 0000.0001) > mult_tauv   = 1.,
(PID.TID 0000.0001) >#
(PID.TID 0000.0001) > mult_atemp  = 1.,
(PID.TID 0000.0001) > mult_aqh    = 1.,
(PID.TID 0000.0001) > mult_uwind  = 1.,
(PID.TID 0000.0001) > mult_vwind  = 1.,
(PID.TID 0000.0001) > mult_precip = 1.,
(PID.TID 0000.0001) > mult_swflux = 1.,
(PID.TID 0000.0001) > mult_swdown = 1.,
(PID.TID 0000.0001) > mult_lwflux = 1.,
(PID.TID 0000.0001) > mult_lwdown = 1.,
(PID.TID 0000.0001) >#
(PID.TID 0000.0001) > mult_kapgm   = 1.,
(PID.TID 0000.0001) > mult_kapredi = 1.,
(PID.TID 0000.0001) > mult_diffkr  = 1.,
(PID.TID 0000.0001) > mult_edtau   = 1.,
(PID.TID 0000.0001) > mult_bottomdrag   = 1.,
(PID.TID 0000.0001) >#
(PID.TID 0000.0001) > tdatfile        = 'T_OWPv1_M_eccollc_90x50.bin',
(PID.TID 0000.0001) > sdatfile        = 'S_OWPv1_M_eccollc_90x50.bin',
(PID.TID 0000.0001) ># tdatfile        = 'g_wod05_ptmp50',
(PID.TID 0000.0001) ># sdatfile        = 'g_wod05_salt50',
(PID.TID 0000.0001) > temperrfile     = 'sigma_T_atlas2_eccollc.bin',
(PID.TID 0000.0001) > salterrfile     = 'sigma_S_atlas2_eccollc.bin',
(PID.TID 0000.0001) >#
(PID.TID 0000.0001) > mdtdatfile      = 'mdt_pak09.bin',
(PID.TID 0000.0001) ># topexmeanfile   = 'mdt_max09.bin',
(PID.TID 0000.0001) ># topexmeanfile   = 'mdt_rio09.bin',
(PID.TID 0000.0001) >#revised version: geoid_errfile   = 'sigma_MDT_glob_eccollc.bin',
(PID.TID 0000.0001) > geoid_errfile   = 'g_TPJ_GRACE_r4.err',
(PID.TID 0000.0001) >#
(PID.TID 0000.0001) > using_topex     = .TRUE.,
(PID.TID 0000.0001) > topexstartdate1 = 19920101,
(PID.TID 0000.0001) > topexstartdate2 = 00000,
(PID.TID 0000.0001) > topexperiod     = 86400.0,
(PID.TID 0000.0001) > topexfile       = 'RADS_TJ_v4_noice',
(PID.TID 0000.0001) >#!!we need a file in cm!! tp_errfile     = 'sigma_SLA_PWS07r2_glob_eccollc.bin',
(PID.TID 0000.0001) > tp_errfile     = 'g_PODAAC_TPJ_sd_s_filled_11yr',
(PID.TID 0000.0001) >#
(PID.TID 0000.0001) > using_ers       = .TRUE.,
(PID.TID 0000.0001) > ersstartdate1   = 19920101,
(PID.TID 0000.0001) > ersstartdate2   = 00000,
(PID.TID 0000.0001) > ersperiod       = 86400.0,
(PID.TID 0000.0001) > ersfile         = 'RADS_ERS_ENV_v4_noice',
(PID.TID 0000.0001) >#!!we need a file in cm!! ers_errfile     = 'sigma_SLA_PWS07r2_glob_eccollc.bin',
(PID.TID 0000.0001) > ers_errfile     = 'g_PODAAC_TPJ_sd_s_filled_11yr',
(PID.TID 0000.0001) >#
(PID.TID 0000.0001) > using_gfo       = .TRUE.,
(PID.TID 0000.0001) > gfostartdate1   = 19920101,
(PID.TID 0000.0001) > gfostartdate2   = 00000,
(PID.TID 0000.0001) > gfoperiod       = 86400.0,
(PID.TID 0000.0001) > gfofile         = 'RADS_GFO_v4_noice',
(PID.TID 0000.0001) >#!!we need a file in cm!!  gfo_errfile     = 'sigma_SLA_PWS07r2_glob_eccollc.bin',
(PID.TID 0000.0001) > gfo_errfile     = 'g_PODAAC_TPJ_sd_s_filled_11yr',
(PID.TID 0000.0001) >#
(PID.TID 0000.0001) > sststartdate1   = 19920101,
(PID.TID 0000.0001) > sststartdate2   = 00000,
(PID.TID 0000.0001) >#sstdatfile      = 'g_SST_monthly_r2',
(PID.TID 0000.0001) > sstdatfile      = 'reynolds_oiv2_r1',
(PID.TID 0000.0001) >#
(PID.TID 0000.0001) > tmistartdate1   = 19980101,
(PID.TID 0000.0001) > tmistartdate2   = 00000,
(PID.TID 0000.0001) > tmidatfile      = 'tmi_amsre_oisst_r1',
(PID.TID 0000.0001) >#
(PID.TID 0000.0001) > ssterrfile      = 'sigma_half.bin',
(PID.TID 0000.0001) >#
(PID.TID 0000.0001) > bpstartdate1   = 19920101,
(PID.TID 0000.0001) > bpstartdate2   = 00000,
(PID.TID 0000.0001) > bpdatfile      = 'GRACE_CSR_withland',
(PID.TID 0000.0001) > bperrfile      = 'GRACE_CSR_withland_err',
(PID.TID 0000.0001) >#
(PID.TID 0000.0001) > scatstartdate1   = 19990101,
(PID.TID 0000.0001) > scatstartdate2   = 00000,
(PID.TID 0000.0001) > scatxdatfile      = 'QSCAT_Large_u_r2',
(PID.TID 0000.0001) > scatx_errfile     = 'QSCAT_Large_u_r2.rms',
(PID.TID 0000.0001) > scatydatfile      = 'QSCAT_Large_v_r2',
(PID.TID 0000.0001) > scaty_errfile     = 'QSCAT_Large_v_r2.rms',
(PID.TID 0000.0001) >#
(PID.TID 0000.0001) > mult_temp   = 0.15,
(PID.TID 0000.0001) > mult_salt   = 0.15,
(PID.TID 0000.0001) > mult_sst    = 1.,
(PID.TID 0000.0001) > mult_tmi    = 0.,
(PID.TID 0000.0001) > mult_scatx  = 0.,
(PID.TID 0000.0001) > mult_scaty  = 0.,
(PID.TID 0000.0001) > mult_bp     = 0.,
(PID.TID 0000.0001) >#
(PID.TID 0000.0001) > cost_iprec  = 32,
(PID.TID 0000.0001) > cost_yftype = 'RL',
(PID.TID 0000.0001) >#
(PID.TID 0000.0001) > /
(PID.TID 0000.0001) >#
(PID.TID 0000.0001) > &ECCO_GENCOST_NML
(PID.TID 0000.0001) >#
(PID.TID 0000.0001) >  gencost_avgperiod(1)  = 'month',
(PID.TID 0000.0001) >  gencost_barfile(1) = 'gbar_area',
(PID.TID 0000.0001) >  gencost_datafile(1) = 'nsidc79_monthly',
(PID.TID 0000.0001) >  gencost_errfile(1) = 'sigma_iceconc_eccollc.bin',
(PID.TID 0000.0001) >  gencost_name(1) = 'siv4-conc',
(PID.TID 0000.0001) >  gencost_spmin(1) = -999.,
(PID.TID 0000.0001) >  gencost_spmax(1) = 999.,
(PID.TID 0000.0001) >  gencost_spzero(1) = -9999.,
(PID.TID 0000.0001) >  mult_gencost(1) = 0.,
(PID.TID 0000.0001) >#
(PID.TID 0000.0001) >  gencost_avgperiod(2)  = 'month',
(PID.TID 0000.0001) >  gencost_barfile(2) = 'gbar_deconc',
(PID.TID 0000.0001) >  gencost_name(2) = 'siv4-deconc',
(PID.TID 0000.0001) >  mult_gencost(2) = 1.,
(PID.TID 0000.0001) >  gencost_datafile(2) = 'nsidc79_monthly',
(PID.TID 0000.0001) >  gencost_spmin(2) = -999.,
(PID.TID 0000.0001) >  gencost_spmax(2) = 999.,
(PID.TID 0000.0001) >  gencost_spzero(2) = -9999.,
(PID.TID 0000.0001) >#
(PID.TID 0000.0001) >  gencost_avgperiod(3)  = 'month',
(PID.TID 0000.0001) >  gencost_barfile(3) = 'gbar_exconc',
(PID.TID 0000.0001) >  gencost_name(3) = 'siv4-exconc',
(PID.TID 0000.0001) >  mult_gencost(3) = 0.,
(PID.TID 0000.0001) >  gencost_datafile(3) = 'nsidc79_monthly',
(PID.TID 0000.0001) >  gencost_spmin(3) = -999.,
(PID.TID 0000.0001) >  gencost_spmax(3) = 999.,
(PID.TID 0000.0001) >  gencost_spzero(3) = -9999.,
(PID.TID 0000.0001) >#
(PID.TID 0000.0001) > gencost_errfile(11) = 'sigma_MDT_glob_eccollc.bin',
(PID.TID 0000.0001) > gencost_name(11) = 'sshv4-mdt',
(PID.TID 0000.0001) > gencost_scalefile(11) = 'sshv4_scale_1p5points.bin',
(PID.TID 0000.0001) > mult_gencost(11) = 1.,
(PID.TID 0000.0001) > gencost_errfile(12) = 'slaerr_gridscale_r1.err',
(PID.TID 0000.0001) > gencost_name(12) = 'sshv4-tp',
(PID.TID 0000.0001) > mult_gencost(12) = 1.,
(PID.TID 0000.0001) > gencost_errfile(13) = 'slaerr_gridscale_r1.err',
(PID.TID 0000.0001) > gencost_name(13) = 'sshv4-ers',
(PID.TID 0000.0001) > mult_gencost(13) = 1.,
(PID.TID 0000.0001) > gencost_errfile(14) = 'slaerr_gridscale_r1.err',
(PID.TID 0000.0001) > gencost_name(14) = 'sshv4-gfo',
(PID.TID 0000.0001) > mult_gencost(14) = 1.,
(PID.TID 0000.0001) > gencost_errfile(15) = 'slaerr_largescale_r1.err',
(PID.TID 0000.0001) > gencost_name(15) = 'sshv4-lsc',
(PID.TID 0000.0001) > gencost_scalefile(15) = 'sshv4_scale_3points.bin',
(PID.TID 0000.0001) > mult_gencost(15) = 1.,
(PID.TID 0000.0001) > gencost_name(16) = 'sshv4-gmsl',
(PID.TID 0000.0001) > mult_gencost(16) = 0.001,
(PID.TID 0000.0001) >#
(PID.TID 0000.0001) >#gencost_errfile(18) = 'sigma_half.bin',
(PID.TID 0000.0001) >#gencost_name(18) = 'sstv4-amsre-lsc',
(PID.TID 0000.0001) >#gencost_scalefile(18) = 'sshv4_scale_3points.bin',
(PID.TID 0000.0001) >#mult_gencost(18) = 0.,
(PID.TID 0000.0001) >#gencost_errfile(17) = 'sigma_half.bin',
(PID.TID 0000.0001) >#gencost_name(17) = 'sstv4-amsre',
(PID.TID 0000.0001) >#gencost_datafile(17) = 'tmi_amsre_l2p_r1',
(PID.TID 0000.0001) >#mult_gencost(17) = 0.,
(PID.TID 0000.0001) >#
(PID.TID 0000.0001) > /
(PID.TID 0000.0001) >#
(PID.TID 0000.0001) 
(PID.TID 0000.0001) ECCO_READPARMS: finished reading #1: ecco_cost_nml
(PID.TID 0000.0001) ECCO_READPARMS: finished reading #2: ecco_gencost_nml
(PID.TID 0000.0001) ECCO_READPARMS: done
(PID.TID 0000.0001) PROFILES_READPARMS: opening data.profiles
(PID.TID 0000.0001)  OPEN_COPY_DATA_FILE: opening file data.profiles
(PID.TID 0000.0001) // =======================================================
(PID.TID 0000.0001) // Parameter file "data.profiles"
(PID.TID 0000.0001) // =======================================================
(PID.TID 0000.0001) >#
(PID.TID 0000.0001) ># ******************
(PID.TID 0000.0001) ># PROFILES cost function
(PID.TID 0000.0001) ># ******************
(PID.TID 0000.0001) > &PROFILES_NML
(PID.TID 0000.0001) > profilesDoGenGrid=.TRUE.,
(PID.TID 0000.0001) >#
(PID.TID 0000.0001) > /
(PID.TID 0000.0001) 
(PID.TID 0000.0001) PROFILES_READPARMS: finished reading data.profiles
(PID.TID 0000.0001)  DIAGNOSTICS_READPARMS: opening data.diagnostics
(PID.TID 0000.0001)  OPEN_COPY_DATA_FILE: opening file data.diagnostics
(PID.TID 0000.0001) // =======================================================
(PID.TID 0000.0001) // Parameter file "data.diagnostics"
(PID.TID 0000.0001) // =======================================================
(PID.TID 0000.0001) ># Diagnostic Package Choices
(PID.TID 0000.0001) >#-----------------
(PID.TID 0000.0001) ># for each output-stream:
(PID.TID 0000.0001) >#  filename(n) : prefix of the output file name (only 8.c long) for outp.stream n
(PID.TID 0000.0001) >#  frequency(n):< 0 : write snap-shot output every multiple of |frequency| (iter)
(PID.TID 0000.0001) >#               > 0 : write time-average output every multiple of frequency (iter)
(PID.TID 0000.0001) >#  levels(:,n) : list of levels to write to file (Notes: declared as REAL)
(PID.TID 0000.0001) >#                 when this entry is missing, select all common levels of this list
(PID.TID 0000.0001) >#  fields(:,n) : list of diagnostics fields (8.c) (see "available_diagnostics" file
(PID.TID 0000.0001) >#                 for the list of all available diag. in this particular config)
(PID.TID 0000.0001) >#--------------------------------------------------------------------
(PID.TID 0000.0001) >#
(PID.TID 0000.0001) > &diagnostics_list
(PID.TID 0000.0001) >#
(PID.TID 0000.0001) >   dumpatlast = .TRUE.,
(PID.TID 0000.0001) >#---
(PID.TID 0000.0001) >  frequency(1) = 2635200.0,
(PID.TID 0000.0001) >   fields(1:25,1) = 'ETAN    ','SIarea  ','SIheff ','SIhsnow ',
(PID.TID 0000.0001) >#stuff that is not quite state variables (and may not be quite
(PID.TID 0000.0001) >#synchroneous) but are added here to reduce number of files
(PID.TID 0000.0001) >                 'DETADT2 ','PHIBOT  ','sIceLoad',
(PID.TID 0000.0001) >                 'MXLDEPTH','oceSPDep',
(PID.TID 0000.0001) >                 'SIatmQnt','SIatmFW ','oceQnet ','oceFWflx',
(PID.TID 0000.0001) >                 'oceTAUX ','oceTAUY ',
(PID.TID 0000.0001) >                 'ADVxHEFF','ADVyHEFF','DFxEHEFF','DFyEHEFF',
(PID.TID 0000.0001) >                 'ADVxSNOW','ADVySNOW','DFxESNOW','DFyESNOW',
(PID.TID 0000.0001) >                 'SIuice  ','SIvice  ',
(PID.TID 0000.0001) >   filename(1) = 'diags/state_2d_set1',
(PID.TID 0000.0001) >#---
(PID.TID 0000.0001) >  frequency(2) = 2635200.0,
(PID.TID 0000.0001) >   fields(1:3,2) = 'THETA   ','SALT    ',
(PID.TID 0000.0001) >#stuff that is not quite state variables (and may not be quite
(PID.TID 0000.0001) >#synchroneous) but are added here to reduce file number
(PID.TID 0000.0001) >                 'DRHODR  ',
(PID.TID 0000.0001) >#                'KPPviscA','KPPdiffT','KPPdiffTS',
(PID.TID 0000.0001) >#                'GGL90TKE','GGL90Lmx','GGL90Prl',
(PID.TID 0000.0001) >#                'GGL90ArU','GGL90ArV','GGL90Kr ',
(PID.TID 0000.0001) >   filename(2) = 'diags/state_3d_set1',
(PID.TID 0000.0001) >#---
(PID.TID 0000.0001) >  frequency(3) = 2635200.0,
(PID.TID 0000.0001) >   fields(1:5,3) = 'UVELMASS','VVELMASS','WVELMASS',
(PID.TID 0000.0001) >                 'GM_PsiX ','GM_PsiY ',
(PID.TID 0000.0001) >#uvel is approximately uvelmass divided by initial hfac, so we dont output the former
(PID.TID 0000.0001) >#                'UVEL    ','VVEL    ','WVEL     ',
(PID.TID 0000.0001) >#full 3D temperature fluxes : 'DFxE_TH ','DFyE_TH ','DFrE_TH ','DFrI_TH ','ADVx_TH ','ADVy_TH ','ADVr_TH ',
(PID.TID 0000.0001) >#but for present computations I only need the vertically integrated horizontal components (see trsp_3d_set2)
(PID.TID 0000.0001) >   filename(3) = 'diags/trsp_3d_set1',
(PID.TID 0000.0001) >#---
(PID.TID 0000.0001) >  frequency(4) = 2635200.0,
(PID.TID 0000.0001) >   fields(1:8,4) = 'DFxE_TH ','DFyE_TH ','ADVx_TH ','ADVy_TH ',
(PID.TID 0000.0001) >                 'DFxE_SLT','DFyE_SLT','ADVx_SLT','ADVy_SLT',
(PID.TID 0000.0001) >   filename(4) = 'diags/trsp_3d_set2',
(PID.TID 0000.0001) >#vertically integrate fields we only use to compute vertically integr.
(PID.TID 0000.0001) >#meridional transports (also omit vertical transports, both to save space)
(PID.TID 0000.0001) >#---
(PID.TID 0000.0001) >  frequency(5) = -2635200.0,
(PID.TID 0000.0001) >   fields(1:6,5) = 'ETAN    ','SIheff  ','SIhsnow ',
(PID.TID 0000.0001) >                 'SIarea  ','sIceLoad','PHIBOT  ',
(PID.TID 0000.0001) >   filename(5) = 'diags/budg2d_snap_set1',
(PID.TID 0000.0001) >   timePhase(5)= 0.,
(PID.TID 0000.0001) >   fileFlags(5) = 'D       ',
(PID.TID 0000.0001) >#---
(PID.TID 0000.0001) >  frequency(6) = -2635200.0,
(PID.TID 0000.0001) >   fields(1:2,6) = 'THETA   ','SALT    ',
(PID.TID 0000.0001) >   filename(6) = 'diags/budg2d_snap_set2',
(PID.TID 0000.0001) >   timePhase(6)= 0.,
(PID.TID 0000.0001) >   fileFlags(6) = 'DI      ',
(PID.TID 0000.0001) >#---
(PID.TID 0000.0001) >  frequency(7) = 2635200.0,
(PID.TID 0000.0001) >   fields(1:7,7) = 'oceFWflx','SIatmFW ','TFLUX   ','SItflux ',
(PID.TID 0000.0001) >                   'SFLUX   ','oceQsw  ','oceSPflx',
(PID.TID 0000.0001) >   filename(7) = 'diags/budg2d_zflux_set1',
(PID.TID 0000.0001) >   fileFlags(7) = 'D       ',
(PID.TID 0000.0001) >#---
(PID.TID 0000.0001) >  frequency(8) = 2635200.0,
(PID.TID 0000.0001) >   fields(1:13,8) ='UVELMASS','VVELMASS',
(PID.TID 0000.0001) >                 'ADVx_TH ','ADVy_TH ','DFxE_TH ','DFyE_TH ',
(PID.TID 0000.0001) >                 'ADVx_SLT','ADVy_SLT','DFxE_SLT','DFyE_SLT',
(PID.TID 0000.0001) >#the following are not transports but tendencies
(PID.TID 0000.0001) >                 'oceSPtnd','AB_gT   ','AB_gS   ',
(PID.TID 0000.0001) >   filename(8) = 'diags/budg2d_hflux_set2',
(PID.TID 0000.0001) >   fileFlags(8) = 'DI      ',
(PID.TID 0000.0001) >#---
(PID.TID 0000.0001) >  frequency(9) = 2635200.0,
(PID.TID 0000.0001) >   fields(1:8,9) ='ADVxHEFF','ADVyHEFF','DFxEHEFF','DFyEHEFF',
(PID.TID 0000.0001) >                 'ADVxSNOW','ADVySNOW','DFxESNOW','DFyESNOW',
(PID.TID 0000.0001) >   filename(9) = 'diags/budg2d_hflux_set1',
(PID.TID 0000.0001) >   fileFlags(9) = 'D       ',
(PID.TID 0000.0001) >#---
(PID.TID 0000.0001) ># this one is important because it activates the vertical advection diags
(PID.TID 0000.0001) >  frequency(10) = 2635200.0,
(PID.TID 0000.0001) >   fields(1:7,10) = 'ADVr_TH ','DFrE_TH ','DFrI_TH ',
(PID.TID 0000.0001) >                  'ADVr_SLT','DFrE_SLT','DFrI_SLT',
(PID.TID 0000.0001) >                  'WVELMASS',
(PID.TID 0000.0001) >   filename(10) = 'diags/budg2d_zflux_set3_11',
(PID.TID 0000.0001) >   levels(1, 10)= 11.,
(PID.TID 0000.0001) >   fileFlags(10) = 'D       ',
(PID.TID 0000.0001) >#---
(PID.TID 0000.0001) >  frequency(11) = 2635200.0,
(PID.TID 0000.0001) >   fields(1:10,11) ='SRELAX  ','TRELAX  ','WTHMASS ','WSLTMASS',
(PID.TID 0000.0001) >                 'oceSflux','oceQnet ','SIatmQnt',
(PID.TID 0000.0001) >                 'SIaaflux','SIsnPrcp','SIacSubl',
(PID.TID 0000.0001) >   filename(11) = 'diags/budg2d_zflux_set2',
(PID.TID 0000.0001) >   fileFlags(11) = 'D       ',
(PID.TID 0000.0001) >#---
(PID.TID 0000.0001) >  frequency(12) = 2635200.0,
(PID.TID 0000.0001) >   fields(1:13,12) ='UVELMASS','VVELMASS',
(PID.TID 0000.0001) >                 'ADVx_TH ','ADVy_TH ','DFxE_TH ','DFyE_TH ',
(PID.TID 0000.0001) >                 'ADVx_SLT','ADVy_SLT','DFxE_SLT','DFyE_SLT',
(PID.TID 0000.0001) >                 'oceSPtnd','AB_gT   ','AB_gS   ',
(PID.TID 0000.0001) >   filename(12) = 'diags/budg2d_hflux_set3_11',
(PID.TID 0000.0001) >   levels(1:40,12) = 11.,12.,13.,14.,15.,16.,17.,18.,19.,20.,
(PID.TID 0000.0001) >                     21.,22.,23.,24.,25.,26.,27.,28.,29.,30.,
(PID.TID 0000.0001) >                     31.,32.,33.,34.,35.,36.,37.,38.,39.,40.,
(PID.TID 0000.0001) >                     41.,42.,43.,44.,45.,46.,47.,48.,49.,50.,
(PID.TID 0000.0001) >   fileFlags(12) = 'DI      ',
(PID.TID 0000.0001) >#---
(PID.TID 0000.0001) >  frequency(13) = -2635200.0,
(PID.TID 0000.0001) >   fields(1:2,13) = 'THETA   ','SALT    ',
(PID.TID 0000.0001) >   filename(13) = 'diags/budg2d_snap_set3_11',
(PID.TID 0000.0001) >   timePhase(13)= 0.,
(PID.TID 0000.0001) >   levels(1:40,13) = 11.,12.,13.,14.,15.,16.,17.,18.,19.,20.,
(PID.TID 0000.0001) >                     21.,22.,23.,24.,25.,26.,27.,28.,29.,30.,
(PID.TID 0000.0001) >                     31.,32.,33.,34.,35.,36.,37.,38.,39.,40.,
(PID.TID 0000.0001) >                     41.,42.,43.,44.,45.,46.,47.,48.,49.,50.,
(PID.TID 0000.0001) >   fileFlags(13) = 'DI      ',
(PID.TID 0000.0001) >#---
(PID.TID 0000.0001) >  frequency(14) = 2635200.0,
(PID.TID 0000.0001) >   fields(1:8,14) = 'DFxE_TH ','DFyE_TH ','ADVx_TH ','ADVy_TH ',
(PID.TID 0000.0001) >                 'DFxE_SLT','DFyE_SLT','ADVx_SLT','ADVy_SLT',
(PID.TID 0000.0001) >   filename(14) = 'diags/trsp_2d_set1',
(PID.TID 0000.0001) >#vertically integrate fields we only use to compute vertically integr.
(PID.TID 0000.0001) >#meridional transports (also omit vertical transports, both to save space)
(PID.TID 0000.0001) >   fileFlags(14) = ' I      ',
(PID.TID 0000.0001) >#---
(PID.TID 0000.0001) >  frequency(15) = 2635200.0,
(PID.TID 0000.0001) >   fields(1:3,15) = 'RHOAnoma','PHIHYD  ','oceSPtnd',
(PID.TID 0000.0001) >   filename(15) = 'diags/state_3d_set2',
(PID.TID 0000.0001) >#---
(PID.TID 0000.0001) >  frequency(16) = 2635200.0,
(PID.TID 0000.0001) >   fields(1:7,16) = 'ADVr_TH ','DFrE_TH ','DFrI_TH ',
(PID.TID 0000.0001) >        'ADVr_SLT','DFrE_SLT','DFrI_SLT','WVELMASS',
(PID.TID 0000.0001) >   filename(16) = 'diags/trsp_3d_set3',
(PID.TID 0000.0001) >#---
(PID.TID 0000.0001) >  frequency(17) = 2635200.0,
(PID.TID 0000.0001) >   fields(1:7,17) = 'TFLUX   ','SItflux ','SFLUX   ',
(PID.TID 0000.0001) >        'oceQsw  ','oceSPflx','SIsnPrcp','SIacSubl',
(PID.TID 0000.0001) >   filename(17) = 'diags/state_2d_set2',
(PID.TID 0000.0001) >#---
(PID.TID 0000.0001) > /
(PID.TID 0000.0001) >#
(PID.TID 0000.0001) >#
(PID.TID 0000.0001) ># Parameter for Diagnostics of per level statistics:
(PID.TID 0000.0001) >#-----------------
(PID.TID 0000.0001) ># for each output-stream:
(PID.TID 0000.0001) >#  stat_fname(n) : prefix of the output file name (only 8.c long) for outp.stream n
(PID.TID 0000.0001) >#  stat_freq(n):< 0 : write snap-shot output every |stat_freq| seconds
(PID.TID 0000.0001) >#               > 0 : write time-average output every stat_freq seconds
(PID.TID 0000.0001) >#  stat_phase(n)    : write at time = stat_phase + multiple of |stat_freq|
(PID.TID 0000.0001) >#  stat_region(:,n) : list of "regions" (default: 1 region only=global)
(PID.TID 0000.0001) >#  stat_fields(:,n) : list of diagnostics fields (8.c) (see "available_diagnostics.log"
(PID.TID 0000.0001) >#                 file for the list of all available diag. in this particular config)
(PID.TID 0000.0001) >#-----------------
(PID.TID 0000.0001) > &DIAG_STATIS_PARMS
(PID.TID 0000.0001) ># diagSt_regMaskFile='basin_masks_eccollc_90x50.bin',
(PID.TID 0000.0001) ># nSetRegMskFile=1,
(PID.TID 0000.0001) ># set_regMask(1)= 1,  1,  1,  1,  1,  1,  1,  1,  1,
(PID.TID 0000.0001) >#                 1,  1,  1,  1,  1,  1,  1,  1
(PID.TID 0000.0001) ># val_regMask(1)= 1., 2., 3., 4., 5., 6., 7., 8., 9.,
(PID.TID 0000.0001) >#                10.,11.,12.,13.,14.,15.,16.,17.
(PID.TID 0000.0001) >##---
(PID.TID 0000.0001) ># stat_fields(1,1)= 'ETAN    ','ETANSQ  ','DETADT2 ',
(PID.TID 0000.0001) >#                   'UVEL    ','VVEL    ','WVEL    ',
(PID.TID 0000.0001) >#                   'THETA   ','SALT    ',
(PID.TID 0000.0001) >#    stat_fname(1)= 'dynStDiag',
(PID.TID 0000.0001) >#     stat_freq(1)= 3153600.,
(PID.TID 0000.0001) ># stat_region(1,1)=  1, 2, 3, 4, 5, 6, 7, 8, 9,
(PID.TID 0000.0001) >#                   10,11,12,13,14,15,16,17
(PID.TID 0000.0001) >##---
(PID.TID 0000.0001) ># stat_fields(1,2)= 'oceTAUX ','oceTAUY ',
(PID.TID 0000.0001) >#                   'surForcT','surForcS','TFLUX   ','SFLUX   ',
(PID.TID 0000.0001) >#                   'oceQnet ','oceSflux','oceFWflx',
(PID.TID 0000.0001) >#    stat_fname(2)= 'surfStDiag',
(PID.TID 0000.0001) >#     stat_freq(2)= 3153600.,
(PID.TID 0000.0001) ># stat_region(1,2)=  1, 2, 3, 4, 5, 6, 7, 8, 9,
(PID.TID 0000.0001) >#                   10,11,12,13,14,15,16,17
(PID.TID 0000.0001) > /
(PID.TID 0000.0001) 
(PID.TID 0000.0001) S/R DIAGNOSTICS_READPARMS, read namelist "diagnostics_list": start
(PID.TID 0000.0001) S/R DIAGNOSTICS_READPARMS, read namelist "diagnostics_list": OK
(PID.TID 0000.0001) S/R DIAGNOSTICS_READPARMS, read namelist "DIAG_STATIS_PARMS": start
(PID.TID 0000.0001) S/R DIAGNOSTICS_READPARMS, read namelist "DIAG_STATIS_PARMS": OK
(PID.TID 0000.0001)  DIAGNOSTICS_READPARMS: global parameter summary:
(PID.TID 0000.0001)  dumpAtLast = /* always write time-ave diags at the end */
(PID.TID 0000.0001)                   T
(PID.TID 0000.0001)     ;
(PID.TID 0000.0001)  diag_mnc =   /* write NetCDF output files */
(PID.TID 0000.0001)                   F
(PID.TID 0000.0001)     ;
(PID.TID 0000.0001)  useMissingValue = /* put MissingValue where mask = 0 */
(PID.TID 0000.0001)                   F
(PID.TID 0000.0001)     ;
(PID.TID 0000.0001)  diagCG_maxIters = /* max number of iters in diag_cg2d */
(PID.TID 0000.0001)                     300
(PID.TID 0000.0001)     ;
(PID.TID 0000.0001)  diagCG_resTarget = /* residual target for diag_cg2d */
(PID.TID 0000.0001)                 1.000000000000000E-07
(PID.TID 0000.0001)     ;
(PID.TID 0000.0001) -----------------------------------------------------
[...]
 --> f_kapgm   = 0.000000000000000D+00
 --> f_kapredi   = 0.000000000000000D+00
 --> f_diffkr  = 0.000000000000000D+00
 --> f_eddytau = 0.000000000000000D+00
 --> f_bottomdrag = 0.000000000000000D+00
 --> f_hfluxmm2           = 0.000000000000000D+00
 --> f_sfluxmm2           = 0.000000000000000D+00
 --> f_transp             = 0.000000000000000D+00
 --> objf_hmean           = 0.000000000000000D+00
 --> fc               = 0.577439458029837D+06
  early fc =  0.000000000000000D+00
 --> objf_test(bi,bj)   =  0.000000000000000D+00
 --> objf_tracer(bi,bj) =  0.000000000000000D+00
 --> objf_atl(bi,bj)    =  0.000000000000000D+00
  local fc =  0.604086062230209D+04
 global fc =  0.577439458029837D+06
(PID.TID 0000.0001)   Seconds in section "ALL                    [THE_MODEL_MAIN]":
(PID.TID 0000.0001)           User time:   31.9059932939708
(PID.TID 0000.0001)         System time:  0.000000000000000E+000
(PID.TID 0000.0001)     Wall clock time:   34.9447648525238
(PID.TID 0000.0001)          No. starts:           1
(PID.TID 0000.0001)           No. stops:           1
(PID.TID 0000.0001)   Seconds in section "INITIALISE_FIXED       [THE_MODEL_MAIN]":
(PID.TID 0000.0001)           User time:   7.07244188711047
(PID.TID 0000.0001)         System time:  0.000000000000000E+000
(PID.TID 0000.0001)     Wall clock time:   8.00387096405029
(PID.TID 0000.0001)          No. starts:           1
(PID.TID 0000.0001)           No. stops:           1
(PID.TID 0000.0001)   Seconds in section "THE_MAIN_LOOP          [THE_MODEL_MAIN]":
(PID.TID 0000.0001)           User time:   24.8335514068604
(PID.TID 0000.0001)         System time:  0.000000000000000E+000
(PID.TID 0000.0001)     Wall clock time:   26.9407508373260
(PID.TID 0000.0001)          No. starts:           1
(PID.TID 0000.0001)           No. stops:           1
(PID.TID 0000.0001)   Seconds in section "INITIALISE_VARIA    [THE_MAIN_LOOP]":
(PID.TID 0000.0001)           User time:   5.57234954833984
(PID.TID 0000.0001)         System time:  0.000000000000000E+000
(PID.TID 0000.0001)     Wall clock time:   5.96242713928223
(PID.TID 0000.0001)          No. starts:           1
(PID.TID 0000.0001)           No. stops:           1
(PID.TID 0000.0001)   Seconds in section "MAIN LOOP           [THE_MAIN_LOOP]":
(PID.TID 0000.0001)           User time:   19.2612018585205
(PID.TID 0000.0001)         System time:  0.000000000000000E+000
(PID.TID 0000.0001)     Wall clock time:   20.9783020019531
(PID.TID 0000.0001)          No. starts:           1
(PID.TID 0000.0001)           No. stops:           1
(PID.TID 0000.0001)   Seconds in section "COST_AVERAGESFIELDS [MAIN_DO_LOOP]":
(PID.TID 0000.0001)           User time:  7.999420166015625E-003
(PID.TID 0000.0001)         System time:  0.000000000000000E+000
(PID.TID 0000.0001)     Wall clock time:  2.239942550659180E-002
(PID.TID 0000.0001)          No. starts:           8
(PID.TID 0000.0001)           No. stops:           8
(PID.TID 0000.0001)   Seconds in section "PROFILES_INLOOP    [MAIN_DO_LOOP]":
(PID.TID 0000.0001)           User time:  0.000000000000000E+000
(PID.TID 0000.0001)         System time:  0.000000000000000E+000
(PID.TID 0000.0001)     Wall clock time:  7.033348083496094E-005
(PID.TID 0000.0001)          No. starts:           8
(PID.TID 0000.0001)           No. stops:           8
(PID.TID 0000.0001)   Seconds in section "MAIN_DO_LOOP        [THE_MAIN_LOOP]":
(PID.TID 0000.0001)           User time:   16.6330394744873
(PID.TID 0000.0001)         System time:  0.000000000000000E+000
(PID.TID 0000.0001)     Wall clock time:   18.1201288700104
(PID.TID 0000.0001)          No. starts:           8
(PID.TID 0000.0001)           No. stops:           8
(PID.TID 0000.0001)   Seconds in section "FORWARD_STEP        [MAIN_DO_LOOP]":
(PID.TID 0000.0001)           User time:   16.6330394744873
(PID.TID 0000.0001)         System time:  0.000000000000000E+000
(PID.TID 0000.0001)     Wall clock time:   18.1200213432312
(PID.TID 0000.0001)          No. starts:           8
(PID.TID 0000.0001)           No. stops:           8
(PID.TID 0000.0001)   Seconds in section "UPDATE_R_STAR       [FORWARD_STEP]":
(PID.TID 0000.0001)           User time:  5.600452423095703E-002
(PID.TID 0000.0001)         System time:  0.000000000000000E+000
(PID.TID 0000.0001)     Wall clock time:  5.557489395141602E-002
(PID.TID 0000.0001)          No. starts:          16
(PID.TID 0000.0001)           No. stops:          16
(PID.TID 0000.0001)   Seconds in section "DO_STATEVARS_DIAGS  [FORWARD_STEP]":
(PID.TID 0000.0001)           User time:  6.400680541992188E-002
(PID.TID 0000.0001)         System time:  0.000000000000000E+000
(PID.TID 0000.0001)     Wall clock time:  6.980609893798828E-002
(PID.TID 0000.0001)          No. starts:          24
(PID.TID 0000.0001)           No. stops:          24
(PID.TID 0000.0001)   Seconds in section "LOAD_FIELDS_DRIVER  [FORWARD_STEP]":
(PID.TID 0000.0001)           User time:  0.392024040222168
(PID.TID 0000.0001)         System time:  0.000000000000000E+000
(PID.TID 0000.0001)     Wall clock time:  0.465787172317505
(PID.TID 0000.0001)          No. starts:           8
(PID.TID 0000.0001)           No. stops:           8
(PID.TID 0000.0001)   Seconds in section "EXF_GETFORCING     [LOAD_FLDS_DRIVER]":
(PID.TID 0000.0001)           User time:  0.392024040222168
(PID.TID 0000.0001)         System time:  0.000000000000000E+000
(PID.TID 0000.0001)     Wall clock time:  0.465565443038940
(PID.TID 0000.0001)          No. starts:           8
(PID.TID 0000.0001)           No. stops:           8
(PID.TID 0000.0001)   Seconds in section "I/O (WRITE)        [ADJOINT LOOP]":
(PID.TID 0000.0001)           User time:  0.000000000000000E+000
(PID.TID 0000.0001)         System time:  0.000000000000000E+000
(PID.TID 0000.0001)     Wall clock time:  1.506805419921875E-004
(PID.TID 0000.0001)          No. starts:          24
(PID.TID 0000.0001)           No. stops:          24
(PID.TID 0000.0001)   Seconds in section "EXTERNAL_FLDS_LOAD [LOAD_FLDS_DRIVER]":
(PID.TID 0000.0001)           User time:  0.000000000000000E+000
(PID.TID 0000.0001)         System time:  0.000000000000000E+000
(PID.TID 0000.0001)     Wall clock time:  5.793571472167969E-005
(PID.TID 0000.0001)          No. starts:           8
(PID.TID 0000.0001)           No. stops:           8
(PID.TID 0000.0001)   Seconds in section "DO_ATMOSPHERIC_PHYS [FORWARD_STEP]":
(PID.TID 0000.0001)           User time:  0.000000000000000E+000
(PID.TID 0000.0001)         System time:  0.000000000000000E+000
(PID.TID 0000.0001)     Wall clock time:  5.364418029785156E-005
(PID.TID 0000.0001)          No. starts:           8
(PID.TID 0000.0001)           No. stops:           8
(PID.TID 0000.0001)   Seconds in section "DO_OCEANIC_PHYS     [FORWARD_STEP]":
(PID.TID 0000.0001)           User time:   1.53209590911865
(PID.TID 0000.0001)         System time:  0.000000000000000E+000
(PID.TID 0000.0001)     Wall clock time:   1.53493118286133
(PID.TID 0000.0001)          No. starts:           8
(PID.TID 0000.0001)           No. stops:           8
(PID.TID 0000.0001)   Seconds in section "SEAICE_MODEL    [DO_OCEANIC_PHYS]":
(PID.TID 0000.0001)           User time:  0.592036247253418
(PID.TID 0000.0001)         System time:  0.000000000000000E+000
(PID.TID 0000.0001)     Wall clock time:  0.587795972824097
(PID.TID 0000.0001)          No. starts:           8
(PID.TID 0000.0001)           No. stops:           8
(PID.TID 0000.0001)   Seconds in section "SEAICE_DYNSOLVER   [SEAICE_MODEL]":
(PID.TID 0000.0001)           User time:  0.552035331726074
(PID.TID 0000.0001)         System time:  0.000000000000000E+000
(PID.TID 0000.0001)     Wall clock time:  0.550384283065796
(PID.TID 0000.0001)          No. starts:           8
(PID.TID 0000.0001)           No. stops:           8
(PID.TID 0000.0001)   Seconds in section "GGL90_CALC [DO_OCEANIC_PHYS]":
(PID.TID 0000.0001)           User time:  0.256015777587891
(PID.TID 0000.0001)         System time:  0.000000000000000E+000
(PID.TID 0000.0001)     Wall clock time:  0.264902830123901
(PID.TID 0000.0001)          No. starts:           8
(PID.TID 0000.0001)           No. stops:           8
(PID.TID 0000.0001)   Seconds in section "DYNAMICS            [FORWARD_STEP]":
(PID.TID 0000.0001)           User time:  0.916058540344238
(PID.TID 0000.0001)         System time:  0.000000000000000E+000
(PID.TID 0000.0001)     Wall clock time:  0.915797233581543
(PID.TID 0000.0001)          No. starts:           8
(PID.TID 0000.0001)           No. stops:           8
(PID.TID 0000.0001)   Seconds in section "UPDATE_CG2D         [FORWARD_STEP]":
(PID.TID 0000.0001)           User time:  3.200054168701172E-002
(PID.TID 0000.0001)         System time:  0.000000000000000E+000
(PID.TID 0000.0001)     Wall clock time:  2.841997146606445E-002
(PID.TID 0000.0001)          No. starts:           8
(PID.TID 0000.0001)           No. stops:           8
(PID.TID 0000.0001)   Seconds in section "SOLVE_FOR_PRESSURE  [FORWARD_STEP]":
(PID.TID 0000.0001)           User time:  0.916058540344238
(PID.TID 0000.0001)         System time:  0.000000000000000E+000
(PID.TID 0000.0001)     Wall clock time:  0.919052600860596
(PID.TID 0000.0001)          No. starts:           8
(PID.TID 0000.0001)           No. stops:           8
(PID.TID 0000.0001)   Seconds in section "MOM_CORRECTION_STEP [FORWARD_STEP]":
(PID.TID 0000.0001)           User time:  1.600074768066406E-002
(PID.TID 0000.0001)         System time:  0.000000000000000E+000
(PID.TID 0000.0001)     Wall clock time:  1.468253135681152E-002
(PID.TID 0000.0001)          No. starts:           8
(PID.TID 0000.0001)           No. stops:           8
(PID.TID 0000.0001)   Seconds in section "INTEGR_CONTINUITY   [FORWARD_STEP]":
(PID.TID 0000.0001)           User time:  3.600311279296875E-002
(PID.TID 0000.0001)         System time:  0.000000000000000E+000
(PID.TID 0000.0001)     Wall clock time:  3.944587707519531E-002
(PID.TID 0000.0001)          No. starts:           8
(PID.TID 0000.0001)           No. stops:           8
(PID.TID 0000.0001)   Seconds in section "CALC_R_STAR         [FORWARD_STEP]":
(PID.TID 0000.0001)           User time:  0.000000000000000E+000
(PID.TID 0000.0001)         System time:  0.000000000000000E+000
(PID.TID 0000.0001)     Wall clock time:  3.488779067993164E-003
(PID.TID 0000.0001)          No. starts:           8
(PID.TID 0000.0001)           No. stops:           8
(PID.TID 0000.0001)   Seconds in section "BLOCKING_EXCHANGES  [FORWARD_STEP]":
(PID.TID 0000.0001)           User time:  0.148005485534668
(PID.TID 0000.0001)         System time:  0.000000000000000E+000
(PID.TID 0000.0001)     Wall clock time:  0.135295867919922
(PID.TID 0000.0001)          No. starts:          16
(PID.TID 0000.0001)           No. stops:          16
(PID.TID 0000.0001)   Seconds in section "THERMODYNAMICS      [FORWARD_STEP]":
(PID.TID 0000.0001)           User time:   1.28007888793945
(PID.TID 0000.0001)         System time:  0.000000000000000E+000
(PID.TID 0000.0001)     Wall clock time:   1.27789115905762
(PID.TID 0000.0001)          No. starts:           8
(PID.TID 0000.0001)           No. stops:           8
(PID.TID 0000.0001)   Seconds in section "TRC_CORRECTION_STEP [FORWARD_STEP]":
(PID.TID 0000.0001)           User time:  0.000000000000000E+000
(PID.TID 0000.0001)         System time:  0.000000000000000E+000
(PID.TID 0000.0001)     Wall clock time:  7.988214492797852E-003
(PID.TID 0000.0001)          No. starts:           8
(PID.TID 0000.0001)           No. stops:           8
(PID.TID 0000.0001)   Seconds in section "DO_STATEVARS_TAVE   [FORWARD_STEP]":
(PID.TID 0000.0001)           User time:  0.000000000000000E+000
(PID.TID 0000.0001)         System time:  0.000000000000000E+000
(PID.TID 0000.0001)     Wall clock time:  5.650520324707031E-005
(PID.TID 0000.0001)          No. starts:           8
(PID.TID 0000.0001)           No. stops:           8
(PID.TID 0000.0001)   Seconds in section "MONITOR             [FORWARD_STEP]":
(PID.TID 0000.0001)           User time:  0.216014862060547
(PID.TID 0000.0001)         System time:  0.000000000000000E+000
(PID.TID 0000.0001)     Wall clock time:  0.215845108032227
(PID.TID 0000.0001)          No. starts:           8
(PID.TID 0000.0001)           No. stops:           8
(PID.TID 0000.0001)   Seconds in section "COST_TILE           [FORWARD_STEP]":
(PID.TID 0000.0001)           User time:  0.000000000000000E+000
(PID.TID 0000.0001)         System time:  0.000000000000000E+000
(PID.TID 0000.0001)     Wall clock time:  5.412101745605469E-005
(PID.TID 0000.0001)          No. starts:           8
(PID.TID 0000.0001)           No. stops:           8
(PID.TID 0000.0001)   Seconds in section "DO_THE_MODEL_IO     [FORWARD_STEP]":
(PID.TID 0000.0001)           User time:   8.73654460906982
(PID.TID 0000.0001)         System time:  0.000000000000000E+000
(PID.TID 0000.0001)     Wall clock time:   9.64953827857971
(PID.TID 0000.0001)          No. starts:           8
(PID.TID 0000.0001)           No. stops:           8
(PID.TID 0000.0001)   Seconds in section "DO_WRITE_PICKUP     [FORWARD_STEP]":
(PID.TID 0000.0001)           User time:   2.29214286804199
(PID.TID 0000.0001)         System time:  0.000000000000000E+000
(PID.TID 0000.0001)     Wall clock time:   2.78486561775208
(PID.TID 0000.0001)          No. starts:           8
(PID.TID 0000.0001)           No. stops:           8
(PID.TID 0000.0001)   Seconds in section "COST_AVERAGESFIELDS [THE_MAIN_LOOP]":
(PID.TID 0000.0001)           User time:  0.504032135009766
(PID.TID 0000.0001)         System time:  0.000000000000000E+000
(PID.TID 0000.0001)     Wall clock time:  0.568426847457886
(PID.TID 0000.0001)          No. starts:           1
(PID.TID 0000.0001)           No. stops:           1
(PID.TID 0000.0001)   Seconds in section "PROFILES_INLOOP    [THE_MAIN_LOOP]":
(PID.TID 0000.0001)           User time:  0.000000000000000E+000
(PID.TID 0000.0001)         System time:  0.000000000000000E+000
(PID.TID 0000.0001)     Wall clock time:  8.106231689453125E-006
(PID.TID 0000.0001)          No. starts:           1
(PID.TID 0000.0001)           No. stops:           1
(PID.TID 0000.0001)   Seconds in section "ECCO_COST_DRIVER   [THE_MAIN_LOOP]":
(PID.TID 0000.0001)           User time:   2.09213066101074
(PID.TID 0000.0001)         System time:  0.000000000000000E+000
(PID.TID 0000.0001)     Wall clock time:   2.20247006416321
(PID.TID 0000.0001)          No. starts:           1
(PID.TID 0000.0001)           No. stops:           1
(PID.TID 0000.0001)   Seconds in section "COST_FORCING       [ECCO SPIN-DOWN]":
(PID.TID 0000.0001)           User time:  0.124008178710938
(PID.TID 0000.0001)         System time:  0.000000000000000E+000
(PID.TID 0000.0001)     Wall clock time:  0.140305995941162
(PID.TID 0000.0001)          No. starts:           1
(PID.TID 0000.0001)           No. stops:           1
(PID.TID 0000.0001)   Seconds in section "COST_HYD           [ECCO SPIN-DOWN]":
(PID.TID 0000.0001)           User time:   1.31208229064941
(PID.TID 0000.0001)         System time:  0.000000000000000E+000
(PID.TID 0000.0001)     Wall clock time:   1.37418889999390
(PID.TID 0000.0001)          No. starts:           1
(PID.TID 0000.0001)           No. stops:           1
(PID.TID 0000.0001)   Seconds in section "SEAICE_COST_DRIVER [ECCO SPIN-DOWN]":
(PID.TID 0000.0001)           User time:  0.000000000000000E+000
(PID.TID 0000.0001)         System time:  0.000000000000000E+000
(PID.TID 0000.0001)     Wall clock time:  8.106231689453125E-006
(PID.TID 0000.0001)          No. starts:           1
(PID.TID 0000.0001)           No. stops:           1
(PID.TID 0000.0001)   Seconds in section "COST_INTERNAL_PARAMS  [ECCO SPIN-DOWN]":
(PID.TID 0000.0001)           User time:  0.656040191650391
(PID.TID 0000.0001)         System time:  0.000000000000000E+000
(PID.TID 0000.0001)     Wall clock time:  0.687886953353882
(PID.TID 0000.0001)          No. starts:           1
(PID.TID 0000.0001)           No. stops:           1
(PID.TID 0000.0001)   Seconds in section "COST_KAPGM      [ECCO SPIN-DOWN]":
(PID.TID 0000.0001)           User time:  0.216012954711914
(PID.TID 0000.0001)         System time:  0.000000000000000E+000
(PID.TID 0000.0001)     Wall clock time:  0.231616973876953
(PID.TID 0000.0001)          No. starts:           1
(PID.TID 0000.0001)           No. stops:           1
(PID.TID 0000.0001)   Seconds in section "COST_KAPREDI      [ECCO SPIN-DOWN]":
(PID.TID 0000.0001)           User time:  0.220012664794922
(PID.TID 0000.0001)         System time:  0.000000000000000E+000
(PID.TID 0000.0001)     Wall clock time:  0.227903842926025
(PID.TID 0000.0001)          No. starts:           1
(PID.TID 0000.0001)           No. stops:           1
(PID.TID 0000.0001)   Seconds in section "COST_DIFFKR      [ECCO SPIN-DOWN]":
(PID.TID 0000.0001)           User time:  0.220014572143555
(PID.TID 0000.0001)         System time:  0.000000000000000E+000
(PID.TID 0000.0001)     Wall clock time:  0.228333950042725
(PID.TID 0000.0001)          No. starts:           1
(PID.TID 0000.0001)           No. stops:           1
(PID.TID 0000.0001)   Seconds in section "COST_GENCOST_ALL    [ECCO SPIN-DOWN]":
(PID.TID 0000.0001)           User time:  0.000000000000000E+000
(PID.TID 0000.0001)         System time:  0.000000000000000E+000
(PID.TID 0000.0001)     Wall clock time:  8.106231689453125E-006
(PID.TID 0000.0001)          No. starts:           1
(PID.TID 0000.0001)           No. stops:           1
(PID.TID 0000.0001)   Seconds in section "COST_USERCOST_ALL    [ECCO SPIN-DOWN]":
(PID.TID 0000.0001)           User time:  0.000000000000000E+000
(PID.TID 0000.0001)         System time:  0.000000000000000E+000
(PID.TID 0000.0001)     Wall clock time:  5.960464477539062E-006
(PID.TID 0000.0001)          No. starts:           1
(PID.TID 0000.0001)           No. stops:           1
(PID.TID 0000.0001)   Seconds in section "COST_GENCTRL       [ECCO SPIN-DOWN]":
(PID.TID 0000.0001)           User time:  0.000000000000000E+000
(PID.TID 0000.0001)         System time:  0.000000000000000E+000
(PID.TID 0000.0001)     Wall clock time:  9.059906005859375E-006
(PID.TID 0000.0001)          No. starts:           1
(PID.TID 0000.0001)           No. stops:           1
(PID.TID 0000.0001)   Seconds in section "COST_FINAL         [ADJOINT SPIN-DOWN]":
(PID.TID 0000.0001)           User time:  7.999420166015625E-003
(PID.TID 0000.0001)         System time:  0.000000000000000E+000
(PID.TID 0000.0001)     Wall clock time:  1.088404655456543E-002
(PID.TID 0000.0001)          No. starts:           1
(PID.TID 0000.0001)           No. stops:           1
(PID.TID 0000.0001) // ======================================================
(PID.TID 0000.0001) // Tile <-> Tile communication statistics
(PID.TID 0000.0001) // ======================================================
(PID.TID 0000.0001) // o Tile number: 000001
(PID.TID 0000.0001) //         No. X exchanges =              0
(PID.TID 0000.0001) //            Max. X spins =              0
(PID.TID 0000.0001) //            Min. X spins =     1000000000
(PID.TID 0000.0001) //          Total. X spins =              0
(PID.TID 0000.0001) //            Avg. X spins =       0.00E+00
(PID.TID 0000.0001) //         No. Y exchanges =              0
(PID.TID 0000.0001) //            Max. Y spins =              0
(PID.TID 0000.0001) //            Min. Y spins =     1000000000
(PID.TID 0000.0001) //          Total. Y spins =              0
(PID.TID 0000.0001) //            Avg. Y spins =       0.00E+00
(PID.TID 0000.0001) // o Thread number: 000001
(PID.TID 0000.0001) //            No. barriers =          39540
(PID.TID 0000.0001) //      Max. barrier spins =              1
(PID.TID 0000.0001) //      Min. barrier spins =              1
(PID.TID 0000.0001) //     Total barrier spins =          39540
(PID.TID 0000.0001) //      Avg. barrier spins =       1.00E+00
PROGRAM MAIN: Execution ended Normally
