(PID.TID 0000.0001) 
(PID.TID 0000.0001) // ======================================================
(PID.TID 0000.0001) //                      MITgcm UV
(PID.TID 0000.0001) //                      =========
(PID.TID 0000.0001) // ======================================================
(PID.TID 0000.0001) // execution environment starting up...
(PID.TID 0000.0001) 
(PID.TID 0000.0001) // MITgcmUV version:  checkpoint65l
(PID.TID 0000.0001) // Build user:        gforget
(PID.TID 0000.0001) // Build host:        GLACIER3.MIT.EDU
(PID.TID 0000.0001) // Build date:        Wed May 20 06:33:07 EDT 2015
(PID.TID 0000.0001) 
(PID.TID 0000.0001) // =======================================================
(PID.TID 0000.0001) // Execution Environment parameter file "eedata"
(PID.TID 0000.0001) // =======================================================
(PID.TID 0000.0001) ># Example "eedata" file
(PID.TID 0000.0001) ># Lines beginning "#" are comments
(PID.TID 0000.0001) ># nTx - No. threads per process in X
(PID.TID 0000.0001) ># nTy - No. threads per process in Y
(PID.TID 0000.0001) > &EEPARMS
(PID.TID 0000.0001) > useCubedSphereExchange=.TRUE.,
(PID.TID 0000.0001) > nTx=1,
(PID.TID 0000.0001) > nTy=1,
(PID.TID 0000.0001) > /
(PID.TID 0000.0001) ># Note: Some systems use & as the
(PID.TID 0000.0001) ># namelist terminator. Other systems
(PID.TID 0000.0001) ># use a / character (as shown here).
(PID.TID 0000.0001) 
(PID.TID 0000.0001) // =======================================================
(PID.TID 0000.0001) // Computational Grid Specification ( see files "SIZE.h" )
(PID.TID 0000.0001) //                                  ( and "eedata"       )
(PID.TID 0000.0001) // =======================================================
(PID.TID 0000.0001)      nPx =   24 ; /* No. processes in X */
(PID.TID 0000.0001)      nPy =    1 ; /* No. processes in Y */
(PID.TID 0000.0001)      nSx =    4 ; /* No. tiles in X per process */
(PID.TID 0000.0001)      nSy =    1 ; /* No. tiles in Y per process */
(PID.TID 0000.0001)      sNx =   30 ; /* Tile size in X */
(PID.TID 0000.0001)      sNy =   30 ; /* Tile size in Y */
(PID.TID 0000.0001)      OLx =    4 ; /* Tile overlap distance in X */
(PID.TID 0000.0001)      OLy =    4 ; /* Tile overlap distance in Y */
(PID.TID 0000.0001)      nTx =    1 ; /* No. threads in X per process */
(PID.TID 0000.0001)      nTy =    1 ; /* No. threads in Y per process */
(PID.TID 0000.0001)       Nr =   50 ; /* No. levels in the vertical   */
(PID.TID 0000.0001)       Nx = 2880 ; /* Total domain size in X ( = nPx*nSx*sNx ) */
(PID.TID 0000.0001)       Ny =   30 ; /* Total domain size in Y ( = nPy*nSy*sNy ) */
(PID.TID 0000.0001)   nTiles =    4 ; /* Total no. tiles per process ( = nSx*nSy ) */
(PID.TID 0000.0001)   nProcs =   24 ; /* Total no. processes ( = nPx*nPy ) */
(PID.TID 0000.0001) nThreads =    1 ; /* Total no. threads per process ( = nTx*nTy ) */
(PID.TID 0000.0001) usingMPI =    T ; /* Flag used to control whether MPI is in use */
(PID.TID 0000.0001)                   /*  note: To execute a program with MPI calls */
(PID.TID 0000.0001)                   /*  it must be launched appropriately e.g     */
(PID.TID 0000.0001)                   /*  "mpirun -np 64 ......"                    */
(PID.TID 0000.0001) useCoupler=    F ;/* Flag used to control communications with   */
(PID.TID 0000.0001)                   /*  other model components, through a coupler */
(PID.TID 0000.0001) debugMode =    F ; /* print debug msg. (sequence of S/R calls)  */
(PID.TID 0000.0001) printMapIncludesZeros=    F ; /* print zeros in Std.Output maps */
(PID.TID 0000.0001) maxLengthPrt1D=   65 /* maxLength of 1D array printed to StdOut */
(PID.TID 0000.0001) 
(PID.TID 0000.0001) ======= Starting MPI parallel Run =========
(PID.TID 0000.0001)  My Processor Name (len: 16 ) = GLACIER3.MIT.EDU
(PID.TID 0000.0001)  Located at (  0,  0) on processor grid (0: 23,0:  0)
(PID.TID 0000.0001)  Origin at  (     1,     1) on global grid (1:  2880,1:    30)
(PID.TID 0000.0001)  North neighbor = processor 0000
(PID.TID 0000.0001)  South neighbor = processor 0000
(PID.TID 0000.0001)   East neighbor = processor 0001
(PID.TID 0000.0001)   West neighbor = processor 0023
(PID.TID 0000.0001) // ======================================================
(PID.TID 0000.0001) // Mapping of tiles to threads
(PID.TID 0000.0001) // ======================================================
(PID.TID 0000.0001) // -o- Thread   1, tiles (   1:   4,   1:   1)
(PID.TID 0000.0001) 
(PID.TID 0000.0001) W2_READPARMS: opening data.exch2
(PID.TID 0000.0001)  OPEN_COPY_DATA_FILE: opening file data.exch2
(PID.TID 0000.0001) // =======================================================
(PID.TID 0000.0001) // Parameter file "data.exch2"
(PID.TID 0000.0001) // =======================================================
(PID.TID 0000.0001) ># EXCH2 Package: Wrapper-2 User Choice
(PID.TID 0000.0001) >#--------------------
(PID.TID 0000.0001) >#  preDefTopol   :: pre-defined Topology selector:
(PID.TID 0000.0001) >#                :: = 0 : topology defined from processing "data.exch2";
(PID.TID 0000.0001) >#                :: = 1 : simple, single facet topology;
(PID.TID 0000.0001) >#                :: = 2 : customized topology (w2_set_myown_facets)
(PID.TID 0000.0001) >#                :: = 3 : 6-facet Cube (3 face-dims: nRed, nGreen, nBlue).
(PID.TID 0000.0001) >#  dimsFacets    :: facet pair of dimensions (n1x,n1y, n2x,n2y ...)
(PID.TID 0000.0001) >#  facetEdgeLink :: Face-Edge connectivity map:
(PID.TID 0000.0001) >#    facetEdgeLink(i,j)=XX.1 : face(j)-edge(i) (i=1,2,3,4 <==> N,S,E,W)
(PID.TID 0000.0001) >#    is connected to Northern edge of face "XX" ; similarly,
(PID.TID 0000.0001) >#    = XX.2 : to Southern.E, XX.3 = Eastern.E, XX.4 = Western.E of face "XX"
(PID.TID 0000.0001) >#  blankList     :: List of "blank" tiles
(PID.TID 0000.0001) >#  W2_mapIO      :: global map IO selector (-1 = old type ; 0 = 1 long line in X
(PID.TID 0000.0001) >#                :: 1 = compact, mostly in Y dir)
(PID.TID 0000.0001) >#  W2_printMsg   :: option for information messages printing
(PID.TID 0000.0001) >#                :: <0 : write to log file ; =0 : minimum print ;
(PID.TID 0000.0001) >#                :: =1 : no duplicated print ; =2 : all processes do print
(PID.TID 0000.0001) >#--------------------
(PID.TID 0000.0001) > &W2_EXCH2_PARM01
(PID.TID 0000.0001) >  W2_printMsg= 0,
(PID.TID 0000.0001) >  W2_mapIO   = 1,
(PID.TID 0000.0001) >#
(PID.TID 0000.0001) >  preDefTopol=0,
(PID.TID 0000.0001) >#-- 5 facets llc_120 topology (drop facet 6 and its connection):
(PID.TID 0000.0001) >  dimsFacets(1:10) = 90, 270, 90, 270, 90, 90, 270, 90, 270, 90,
(PID.TID 0000.0001) >  facetEdgeLink(1:4,1)= 3.4, 0. , 2.4, 5.1,
(PID.TID 0000.0001) >  facetEdgeLink(1:4,2)= 3.2, 0. , 4.2, 1.3,
(PID.TID 0000.0001) >  facetEdgeLink(1:4,3)= 5.4, 2.1, 4.4, 1.1,
(PID.TID 0000.0001) >  facetEdgeLink(1:4,4)= 5.2, 2.3, 0. , 3.3,
(PID.TID 0000.0001) >  facetEdgeLink(1:4,5)= 1.4, 4.1, 0. , 3.1,
(PID.TID 0000.0001) >#-- full 6 facets llc_120 topology (equivalent to default preDefTopol=3):
(PID.TID 0000.0001) ># dimsFacets(1:12) = 120, 360, 120, 360, 120, 120, 360, 120, 360, 120, 120, 120,
(PID.TID 0000.0001) ># facetEdgeLink(1:4,1)= 3.4, 6.1, 2.4, 5.1,
(PID.TID 0000.0001) ># facetEdgeLink(1:4,2)= 3.2, 6.3, 4.2, 1.3,
(PID.TID 0000.0001) ># facetEdgeLink(1:4,3)= 5.4, 2.1, 4.4, 1.1,
(PID.TID 0000.0001) ># facetEdgeLink(1:4,4)= 5.2, 2.3, 6.2, 3.3,
(PID.TID 0000.0001) ># facetEdgeLink(1:4,5)= 1.4, 4.1, 6.4, 3.1,
(PID.TID 0000.0001) ># facetEdgeLink(1:4,6)= 1.2, 4.3, 2.2, 5.3,
(PID.TID 0000.0001) >#
(PID.TID 0000.0001) >#90x30   nprocs = 36
(PID.TID 0000.0001) >#  blankList(1:3)=1,10,11,
(PID.TID 0000.0001) >#30x90
(PID.TID 0000.0001) >#
(PID.TID 0000.0001) >#45x30   nprocs = 72
(PID.TID 0000.0001) >#  blankList(1:6)=1,2,19,20,21,22
(PID.TID 0000.0001) >#old:  blankList(1:8)=1,2,19,20,21,22,33,72
(PID.TID 0000.0001) >#30x45   nprocs = 68
(PID.TID 0000.0001) >#  blankList(1:10)=2,3,19,20,21,35,51,60,69,78
(PID.TID 0000.0001) >#45x45   nprocs = 48
(PID.TID 0000.0001) >#  blankList(1:4)=2,13,14,23
(PID.TID 0000.0001) >#old:  blankList(1:3)=2,13,14
(PID.TID 0000.0001) >#30x30   nprocs = 96
(PID.TID 0000.0001) >  blankList(1:21)=1,2,3,5,6,28,29,30,31,32,33,49,50,52,53,72,81,90,99,108,117
(PID.TID 0000.0001) >#old:   blankList(1:18)=1,2,3,28,29,30,31,32,33,49,50,53,72,81,90,99,108,117
(PID.TID 0000.0001) >#15x30   nprocs = 192
(PID.TID 0000.0001) >#  blankList(1:42)=1,2,3,4,5,6,9,10,11,12,55,56,57,58,59,60,61,62,63,64,65,66,
(PID.TID 0000.0001) >#            97,98,99,100,103,104,105,106,143,144,
(PID.TID 0000.0001) >#            161,162,179,180,197,198,215,216,233,234
(PID.TID 0000.0001) >#15x15   nprocs = 360
(PID.TID 0000.0001) >#  blankList(1:108)=1,2,3,4,5,6,7,8,9,10,11,12,14,15,16,17,18,21,22,23,24,
(PID.TID 0000.0001) >#  65,71,75,76,90,95,96,101,102,109,110,111,112,113,114,115,116,117,118,119,
(PID.TID 0000.0001) >#  120,121,122,123,124,125,126,127,128,129,130,131,132,
(PID.TID 0000.0001) >#  188,189,190,193,194,195,196,199,
(PID.TID 0000.0001) >#  200,201,202,203,205,206,207,208,209,211,212,213,214,215,216,242,247,253,
(PID.TID 0000.0001) >#  267,268,269,270,287,288,305,306,323,324,341,342,359,360,362,376,377,378,
(PID.TID 0000.0001) >#  380,381,382,395,396,400,412,413,414,430,
(PID.TID 0000.0001) >#
(PID.TID 0000.0001) > /
(PID.TID 0000.0001) 
(PID.TID 0000.0001) W2_READPARMS: finished reading data.exch2
(PID.TID 0000.0001) W2_useE2ioLayOut=    T ;/* T: use Exch2 glob IO map; F: use model default */
(PID.TID 0000.0001) W2_mapIO        =   1 ; /* select option for Exch2 global-IO map */
(PID.TID 0000.0001) W2_printMsg     =   0 ; /* select option for printing information */
(PID.TID 0000.0001) ===== Start setting W2 TOPOLOGY:
(PID.TID 0000.0001) W2_E2SETUP: number of Active Tiles =      96
(PID.TID 0000.0001) W2_E2SETUP: number of Blank Tiles  =      21
(PID.TID 0000.0001) W2_E2SETUP: Total number of Tiles  =     117
(PID.TID 0000.0001) W2_SET_GEN_FACETS: preDefTopol=  0 selected
(PID.TID 0000.0001) W2_SET_GEN_FACETS: Number of facets =  5 (inferred from "dimsFacets")
(PID.TID 0000.0001) W2_E2SETUP: Total number of Facets =       5
(PID.TID 0000.0001) W2_SET_F2F_INDEX: index matrix for connected Facet-Edges:
(PID.TID 0000.0001) ** WARNING ** S.Edge of facet #  1 disconnected (facet_link=  0.00)
(PID.TID 0000.0001) ** WARNING ** S.Edge of facet #  2 disconnected (facet_link=  0.00)
(PID.TID 0000.0001) ** WARNING ** E.Edge of facet #  4 disconnected (facet_link=  0.00)
(PID.TID 0000.0001) ** WARNING ** E.Edge of facet #  5 disconnected (facet_link=  0.00)
(PID.TID 0000.0001) W2_SET_MAP_TILES: tile mapping within facet and global Map:
(PID.TID 0000.0001)  W2_mapIO =   90 (=    3*sNx)
(PID.TID 0000.0001)  Global Map (IO): X-size=      90 , Y-size=    1170
(PID.TID 0000.0001) W2_SET_MAP_TILES: tile offset within facet and global Map:
- facet  1 : X-size=    90 , Y-size=   270 ;   27 tiles (Tx,Ty=   3,   9)
- facet  2 : X-size=    90 , Y-size=   270 ;   27 tiles (Tx,Ty=   3,   9)
- facet  3 : X-size=    90 , Y-size=    90 ;    9 tiles (Tx,Ty=   3,   3)
- facet  4 : X-size=   270 , Y-size=    90 ;   27 tiles (Tx,Ty=   9,   3)
- facet  5 : X-size=   270 , Y-size=    90 ;   27 tiles (Tx,Ty=   9,   3)
(PID.TID 0000.0001) W2_SET_MAP_CUMSUM: setting Facet Matrix for CUMUL-SUM
(PID.TID 0000.0001) W2_SET_MAP_CUMSUM: set    4 /   5 active facets (pass,type=   1, 1)
 Facet Matrix for CUMUL-SUM (nFacets=   5, nActive=   5 ):
- facet  1 :  0  0 ,  0  0 ,  0  0 ,  0  0 ,  0  0 ,
- facet  2 :  1  0 ,  0  0 ,  0  0 ,  0  0 ,  0  0 ,
- facet  3 :  1  0 ,  0  1 ,  0  0 ,  0  0 ,  0  0 ,
- facet  4 :  1  0 ,  0  1 ,  1  0 ,  0  0 ,  0  0 ,
- facet  5 :  1  0 ,  0  1 ,  1  0 ,  0  1 ,  0  0 ,
 missing-corner Tile for CUMUL-SUM (nTiles=   117 ): W2_tMC1=    25 , W2_tMC2=     0
(PID.TID 0000.0001) W2_SET_MAP_CUMSUM: done (skip Tile Matrix setting)
(PID.TID 0000.0001) W2_SET_TILE2TILES: tile neighbours and index connection:
(PID.TID 0000.0001) current Max.Nb.Neighbours (e.g., on tile    7 ) =  4
(PID.TID 0000.0001) ===== W2 TILE TOPOLOGY =====
(PID.TID 0000.0001)  TILE:     4 (bi,bj=   1   1 ), Nb of Neighbours =  2
(PID.TID 0000.0001)     NEIGHBOUR  1 = TILE    7 (n=  2) Comm = PUT (PROC=    1)
(PID.TID 0000.0001)     NEIGHBOUR  2 = TILE  116 (n=  1) Comm = MSG (PROC=   24)
(PID.TID 0000.0001)  TILE:     7 (bi,bj=   2   1 ), Nb of Neighbours =  4
(PID.TID 0000.0001)     NEIGHBOUR  1 = TILE   10 (n=  2) Comm = MSG (PROC=    2)
(PID.TID 0000.0001)     NEIGHBOUR  2 = TILE    4 (n=  1) Comm = PUT (PROC=    1)
(PID.TID 0000.0001)     NEIGHBOUR  3 = TILE    8 (n=  3) Comm = PUT (PROC=    1)
(PID.TID 0000.0001)     NEIGHBOUR  4 = TILE  115 (n=  1) Comm = MSG (PROC=   24)
(PID.TID 0000.0001)  TILE:     8 (bi,bj=   3   1 ), Nb of Neighbours =  3
(PID.TID 0000.0001)     NEIGHBOUR  1 = TILE   11 (n=  2) Comm = MSG (PROC=    2)
(PID.TID 0000.0001)     NEIGHBOUR  2 = TILE    9 (n=  3) Comm = PUT (PROC=    1)
(PID.TID 0000.0001)     NEIGHBOUR  3 = TILE    7 (n=  3) Comm = PUT (PROC=    1)
(PID.TID 0000.0001)  TILE:     9 (bi,bj=   4   1 ), Nb of Neighbours =  3
(PID.TID 0000.0001)     NEIGHBOUR  1 = TILE   12 (n=  2) Comm = MSG (PROC=    2)
(PID.TID 0000.0001)     NEIGHBOUR  2 = TILE   34 (n=  3) Comm = MSG (PROC=    6)
(PID.TID 0000.0001)     NEIGHBOUR  3 = TILE    8 (n=  2) Comm = PUT (PROC=    1)
(PID.TID 0000.0001) =====       setting W2 TOPOLOGY: Done
(PID.TID 0000.0001) 
(PID.TID 0000.0001)  INI_PARMS: opening model parameter file "data"
(PID.TID 0000.0001)  OPEN_COPY_DATA_FILE: opening file data
(PID.TID 0000.0001) // =======================================================
(PID.TID 0000.0001) // Parameter file "data"
(PID.TID 0000.0001) // =======================================================
(PID.TID 0000.0001) ># ====================
(PID.TID 0000.0001) ># | Model parameters |
(PID.TID 0000.0001) ># ====================
(PID.TID 0000.0001) >#
(PID.TID 0000.0001) ># Continuous equation parameters
(PID.TID 0000.0001) > &PARM01
(PID.TID 0000.0001) > tRef               = 3*23.,3*22.,21.,2*20.,19.,2*18.,17.,2*16.,15.,14.,13.,
(PID.TID 0000.0001) >                      12.,11.,2*9.,8.,7.,2*6.,2*5.,3*4.,3*3.,4*2.,12*1.,
(PID.TID 0000.0001) > sRef               = 50*34.5,
(PID.TID 0000.0001) > no_slip_sides  = .TRUE.,
(PID.TID 0000.0001) > no_slip_bottom = .TRUE.,
(PID.TID 0000.0001) >#
(PID.TID 0000.0001) > viscAr=1.E-3,
(PID.TID 0000.0001) >#
(PID.TID 0000.0001) > viscAh=1.E0,
(PID.TID 0000.0001) > viscAhGrid=2.E-2,
(PID.TID 0000.0001) ># viscAh=2.0e4,
(PID.TID 0000.0001) >#
(PID.TID 0000.0001) > diffKhT=1.E1,
(PID.TID 0000.0001) > diffKrT=1.E-5,
(PID.TID 0000.0001) > diffKhS=1.E1,
(PID.TID 0000.0001) > diffKrS=1.E-5,
(PID.TID 0000.0001) >#
(PID.TID 0000.0001) >### diffKrBL79surf=0.1E-4,
(PID.TID 0000.0001) >### diffKrBL79deep=1.0E-4,
(PID.TID 0000.0001) > bottomDragQuadratic = 0.001,
(PID.TID 0000.0001) >#when using ggl90
(PID.TID 0000.0001) > ivdc_kappa=10.,
(PID.TID 0000.0001) > implicitDiffusion=.TRUE.,
(PID.TID 0000.0001) > implicitViscosity=.TRUE.,
(PID.TID 0000.0001) > useRealFreshWaterFlux=.TRUE.,
(PID.TID 0000.0001) ># balanceThetaClimRelax=.TRUE.,
(PID.TID 0000.0001) > balanceSaltClimRelax=.TRUE.,
(PID.TID 0000.0001) > balanceEmPmR=.TRUE.,
(PID.TID 0000.0001) ># balanceQnet=.TRUE.,
(PID.TID 0000.0001) > allowFreezing=.FALSE.,
(PID.TID 0000.0001) >### hFacInf=0.2,
(PID.TID 0000.0001) >### hFacSup=2.0,
(PID.TID 0000.0001) > hFacMin=.2,
(PID.TID 0000.0001) > hFacMinDr=5.,
(PID.TID 0000.0001) > select_rStar=2,
(PID.TID 0000.0001) > nonlinFreeSurf=4,
(PID.TID 0000.0001) > gravity=9.81,
(PID.TID 0000.0001) > rhonil=1029.,
(PID.TID 0000.0001) > rhoConst=1029.,
(PID.TID 0000.0001) > rhoConstFresh=1000.,
(PID.TID 0000.0001) > convertFW2Salt=-1.,
(PID.TID 0000.0001) > eosType='JMD95Z',
(PID.TID 0000.0001) > implicitFreeSurface=.TRUE.,
(PID.TID 0000.0001) > exactConserv=.TRUE.,
(PID.TID 0000.0001) > useSingleCpuIO=.TRUE.,
(PID.TID 0000.0001) > tempAdvScheme=30,
(PID.TID 0000.0001) > saltAdvScheme=30,
(PID.TID 0000.0001) > tempVertAdvScheme=3,
(PID.TID 0000.0001) > saltVertAdvScheme=3,
(PID.TID 0000.0001) > tempImplVertAdv=.TRUE.,
(PID.TID 0000.0001) > saltImplVertAdv=.TRUE.,
(PID.TID 0000.0001) > staggerTimeStep=.TRUE.,
(PID.TID 0000.0001) > vectorInvariantMomentum=.TRUE.,
(PID.TID 0000.0001) >#when using the cd scheme:
(PID.TID 0000.0001) ># useCDscheme=.TRUE.,
(PID.TID 0000.0001) > useJamartWetPoints=.TRUE.,
(PID.TID 0000.0001) > readBinaryPrec=32,
(PID.TID 0000.0001) > writeBinaryPrec=32,
(PID.TID 0000.0001) > debugLevel=1,
(PID.TID 0000.0001) > /
(PID.TID 0000.0001) >
(PID.TID 0000.0001) ># Elliptic solver parameters
(PID.TID 0000.0001) > &PARM02
(PID.TID 0000.0001) > cg2dMaxIters=300,
(PID.TID 0000.0001) > cg2dTargetResWunit=1.E-12,
(PID.TID 0000.0001) > /
(PID.TID 0000.0001) >
(PID.TID 0000.0001) ># Time stepping parameters
(PID.TID 0000.0001) > &PARM03
(PID.TID 0000.0001) > nIter0=1,
(PID.TID 0000.0001) >#2 lev2 for testing:
(PID.TID 0000.0001) > nTimeSteps=8,
(PID.TID 0000.0001) >#60 years
(PID.TID 0000.0001) >#nTimeSteps=525985,
(PID.TID 0000.0001) >#
(PID.TID 0000.0001) > forcing_In_AB=.FALSE.,
(PID.TID 0000.0001) > momDissip_In_AB=.FALSE.,
(PID.TID 0000.0001) >#when using the cd scheme:
(PID.TID 0000.0001) ># epsAB_CD = 0.25,
(PID.TID 0000.0001) ># tauCD=172800.0,
(PID.TID 0000.0001) > deltaTmom   =3600.,
(PID.TID 0000.0001) > deltaTtracer=3600.,
(PID.TID 0000.0001) > deltaTfreesurf=3600.,
(PID.TID 0000.0001) > deltaTClock =3600.,
(PID.TID 0000.0001) >#when using ab2:
(PID.TID 0000.0001) ># abEps = 0.1,
(PID.TID 0000.0001) >#when using ab3:
(PID.TID 0000.0001) > doAB_onGtGs=.FALSE.,
(PID.TID 0000.0001) > alph_AB=0.5,
(PID.TID 0000.0001) > beta_AB=0.281105,
(PID.TID 0000.0001) >#
(PID.TID 0000.0001) > pChkptFreq  =31536000.0,
(PID.TID 0000.0001) > chkptFreq   =31536000.0,
(PID.TID 0000.0001) ># taveFreq    =31536000.0,
(PID.TID 0000.0001) ># dumpFreq    =31536000.0,
(PID.TID 0000.0001) > monitorFreq = 7200.0,
(PID.TID 0000.0001) ># monitorFreq = 6307200.0,
(PID.TID 0000.0001) > dumpInitAndLast = .TRUE.,
(PID.TID 0000.0001) > adjDumpFreq = 31536000.0,
(PID.TID 0000.0001) > adjMonitorFreq = 864000.0,
(PID.TID 0000.0001) > pickupStrictlyMatch=.FALSE.,
(PID.TID 0000.0001) > /
(PID.TID 0000.0001) >
(PID.TID 0000.0001) ># Gridding parameters
(PID.TID 0000.0001) > &PARM04
(PID.TID 0000.0001) > usingCurvilinearGrid=.TRUE.,
(PID.TID 0000.0001) > delR =
(PID.TID 0000.0001) >     10.00, 10.00, 10.00, 10.00, 10.00, 10.00, 10.00, 10.01,
(PID.TID 0000.0001) >     10.03, 10.11, 10.32, 10.80, 11.76, 13.42, 16.04, 19.82, 24.85,
(PID.TID 0000.0001) >     31.10, 38.42, 46.50, 55.00, 63.50, 71.58, 78.90, 85.15, 90.18,
(PID.TID 0000.0001) >     93.96, 96.58, 98.25, 99.25,100.01,101.33,104.56,111.33,122.83,
(PID.TID 0000.0001) >     139.09,158.94,180.83,203.55,226.50,249.50,272.50,295.50,318.50,
(PID.TID 0000.0001) >     341.50,364.50,387.50,410.50,433.50,456.50,
(PID.TID 0000.0001) > /
(PID.TID 0000.0001) >
(PID.TID 0000.0001) ># Input datasets
(PID.TID 0000.0001) > &PARM05
(PID.TID 0000.0001) > adTapeDir='tapes',
(PID.TID 0000.0001) >#bathyFile      ='bathy_eccollc_90x50.bin',
(PID.TID 0000.0001) > bathyFile      ='bathy_eccollc_90x50_min2pts.bin',
(PID.TID 0000.0001) > hydrogThetaFile='some_T_atlas.bin',
(PID.TID 0000.0001) > hydrogSaltFile ='some_S_atlas.bin',
(PID.TID 0000.0001) > viscA4Dfile    ='viscA4Dfld_eccollc_90x50.bin',
(PID.TID 0000.0001) > viscA4Zfile    ='viscA4Zfld_eccollc_90x50.bin',
(PID.TID 0000.0001) >#
(PID.TID 0000.0001) > /
(PID.TID 0000.0001) 
(PID.TID 0000.0001)  INI_PARMS ; starts to read PARM01
(PID.TID 0000.0001)  INI_PARMS ; read PARM01 : OK
(PID.TID 0000.0001)  INI_PARMS ; starts to read PARM02
(PID.TID 0000.0001)  INI_PARMS ; read PARM02 : OK
(PID.TID 0000.0001)  INI_PARMS ; starts to read PARM03
(PID.TID 0000.0001)  INI_PARMS ; read PARM03 : OK
(PID.TID 0000.0001)  INI_PARMS ; starts to read PARM04
(PID.TID 0000.0001)  INI_PARMS ; read PARM04 : OK
(PID.TID 0000.0001)  INI_PARMS ; starts to read PARM05
(PID.TID 0000.0001)  INI_PARMS ; read PARM05 : OK
(PID.TID 0000.0001)  INI_PARMS: finished reading file "data"
(PID.TID 0000.0001)  PACKAGES_BOOT: opening data.pkg
(PID.TID 0000.0001)  OPEN_COPY_DATA_FILE: opening file data.pkg
(PID.TID 0000.0001) // =======================================================
(PID.TID 0000.0001) // Parameter file "data.pkg"
(PID.TID 0000.0001) // =======================================================
(PID.TID 0000.0001) ># Packages
(PID.TID 0000.0001) > &PACKAGES
(PID.TID 0000.0001) > useEXF   = .TRUE.,
(PID.TID 0000.0001) >#useRBCS  = .TRUE.,
(PID.TID 0000.0001) > useGMRedi= .TRUE.,
(PID.TID 0000.0001) ># useKPP   = .TRUE.,
(PID.TID 0000.0001) > useSBO   = .TRUE.,
(PID.TID 0000.0001) >#useMNC   = .TRUE.,
(PID.TID 0000.0001) > useSeaice= .TRUE.,
(PID.TID 0000.0001) > useGGL90=.TRUE.,
(PID.TID 0000.0001) > useSALT_PlUME=.TRUE.,
(PID.TID 0000.0001) ># useDOWN_SLOPE=.TRUE.,
(PID.TID 0000.0001) >#useDiagnostics=.TRUE.,
(PID.TID 0000.0001) > useECCO=.TRUE.,
(PID.TID 0000.0001) > useCTRL=.TRUE.,
(PID.TID 0000.0001) > useProfiles=.TRUE.,
(PID.TID 0000.0001) > useSMOOTH=.TRUE.,
(PID.TID 0000.0001) > useGrdchk=.TRUE.,
(PID.TID 0000.0001) >#useLayers=.TRUE.,
(PID.TID 0000.0001) >#
(PID.TID 0000.0001) >#usePtracers=.TRUE.,
(PID.TID 0000.0001) >#useBBL=.TRUE.,
(PID.TID 0000.0001) > /
(PID.TID 0000.0001) 
(PID.TID 0000.0001)  PACKAGES_BOOT: finished reading data.pkg
(PID.TID 0000.0001)  PACKAGES_BOOT: On/Off package Summary
 --------  pkgs with a standard "usePKG" On/Off switch in "data.pkg":  --------
 pkg/ggl90                compiled   and   used ( useGGL90                 = T )
 pkg/gmredi               compiled   and   used ( useGMRedi                = T )
 pkg/cal                  compiled   and   used ( useCAL                   = T )
 pkg/exf                  compiled   and   used ( useEXF                   = T )
 pkg/autodiff             compiled   and   used ( useAUTODIFF              = T )
 pkg/grdchk               compiled   and   used ( useGrdchk                = T )
 pkg/smooth               compiled   and   used ( useSMOOTH                = T )
 pkg/profiles             compiled   and   used ( usePROFILES              = T )
 pkg/ecco                 compiled   and   used ( useECCO                  = T )
 pkg/ctrl                 compiled   and   used ( useCTRL                  = T )
 pkg/sbo                  compiled   and   used ( useSBO                   = T )
 pkg/seaice               compiled   and   used ( useSEAICE                = T )
 pkg/salt_plume           compiled   and   used ( useSALT_PLUME            = T )
 pkg/diagnostics          compiled but not used ( useDiagnostics           = F )
 -------- pkgs without standard "usePKG" On/Off switch in "data.pkg":  --------
 pkg/generic_advdiff      compiled   and   used ( useGAD                   = T )
 pkg/mom_common           compiled   and   used ( momStepping              = T )
 pkg/mom_vecinv           compiled   and   used ( +vectorInvariantMomentum = T )
 pkg/monitor              compiled   and   used ( monitorFreq > 0.         = T )
 pkg/timeave              compiled but not used ( taveFreq > 0.            = F )
 pkg/debug                compiled but not used ( debugMode                = F )
 pkg/exch2                compiled   and   used
 pkg/rw                   compiled   and   used
 pkg/mdsio                compiled   and   used
 pkg/autodiff             compiled   and   used
 pkg/cost                 compiled   and   used
(PID.TID 0000.0001)  PACKAGES_BOOT: End of package Summary
(PID.TID 0000.0001) 
(PID.TID 0000.0001) CAL_READPARMS: opening data.cal
(PID.TID 0000.0001)  OPEN_COPY_DATA_FILE: opening file data.cal
(PID.TID 0000.0001) // =======================================================
(PID.TID 0000.0001) // Parameter file "data.cal"
(PID.TID 0000.0001) // =======================================================
(PID.TID 0000.0001) >#
(PID.TID 0000.0001) ># *******************
(PID.TID 0000.0001) ># Calendar Parameters
(PID.TID 0000.0001) ># *******************
(PID.TID 0000.0001) > &CAL_NML
(PID.TID 0000.0001) > TheCalendar='gregorian',
(PID.TID 0000.0001) > calendarDumps=.TRUE.,
(PID.TID 0000.0001) ># TheCalendar='model',
(PID.TID 0000.0001) > startDate_1=19920101,
(PID.TID 0000.0001) > startDate_2=120000,
(PID.TID 0000.0001) > /
(PID.TID 0000.0001) 
(PID.TID 0000.0001) CAL_READPARMS: finished reading data.cal
(PID.TID 0000.0001) EXF_READPARMS: opening data.exf
(PID.TID 0000.0001)  OPEN_COPY_DATA_FILE: opening file data.exf
(PID.TID 0000.0001) // =======================================================
(PID.TID 0000.0001) // Parameter file "data.exf"
(PID.TID 0000.0001) // =======================================================
(PID.TID 0000.0001) ># *********************
(PID.TID 0000.0001) ># External Forcing Data
(PID.TID 0000.0001) ># *********************
(PID.TID 0000.0001) >#
(PID.TID 0000.0001) > &EXF_NML_01
(PID.TID 0000.0001) >#
(PID.TID 0000.0001) > useAtmWind        = .FALSE.,
(PID.TID 0000.0001) >#NCEP VALUES:
(PID.TID 0000.0001) ># exf_albedo        = 0.15,
(PID.TID 0000.0001) ># exf_scal_BulkCdn  = 1.015,
(PID.TID 0000.0001) >#
(PID.TID 0000.0001) >#TO COMBINE WITH ALLOW_ZENITH_ANGLE:
(PID.TID 0000.0001) > exf_albedo        = 0.1,
(PID.TID 0000.0001) > useExfZenIncoming = .TRUE.,
(PID.TID 0000.0001) > select_ZenAlbedo  = 1,
(PID.TID 0000.0001) >#
(PID.TID 0000.0001) > ocean_emissivity = 0.97,
(PID.TID 0000.0001) > ice_emissivity = 0.95,
(PID.TID 0000.0001) > snow_emissivity = 0.95,
(PID.TID 0000.0001) >#
(PID.TID 0000.0001) > exf_iprec         = 32,
(PID.TID 0000.0001) > exf_yftype        = 'RL',
(PID.TID 0000.0001) > useExfYearlyFields= .TRUE.,
(PID.TID 0000.0001) > useExfCheckRange  = .FALSE.,
(PID.TID 0000.0001) > /
(PID.TID 0000.0001) >#
(PID.TID 0000.0001) > &EXF_NML_02
(PID.TID 0000.0001) > ustressfile       = 'EIG_ustr',
(PID.TID 0000.0001) > vstressfile       = 'EIG_vstr',
(PID.TID 0000.0001) > atempfile         = 'EIG_tmp2m_degC',
(PID.TID 0000.0001) > aqhfile           = 'EIG_spfh2m',
(PID.TID 0000.0001) > precipfile        = 'EIG_rain',
(PID.TID 0000.0001) ># uwindfile         = 'EIG_u10m',
(PID.TID 0000.0001) ># vwindfile         = 'EIG_v10m',
(PID.TID 0000.0001) > wspeedfile        = 'EIG_wspeed',
(PID.TID 0000.0001) > swdownfile        = 'EIG_dsw',
(PID.TID 0000.0001) > lwdownfile        = 'EIG_dlw',
(PID.TID 0000.0001) >### apressurefile     = 'EIG_pres',
(PID.TID 0000.0001) >#
(PID.TID 0000.0001) > ustressstartdate1   = 19920101,
(PID.TID 0000.0001) > ustressstartdate2   = 030000,
(PID.TID 0000.0001) > ustressperiod       = 21600.0,
(PID.TID 0000.0001) >#
(PID.TID 0000.0001) > vstressstartdate1   = 19920101,
(PID.TID 0000.0001) > vstressstartdate2   = 030000,
(PID.TID 0000.0001) > vstressperiod       = 21600.0,
(PID.TID 0000.0001) >#
(PID.TID 0000.0001) > atempstartdate1   = 19920101,
(PID.TID 0000.0001) > atempstartdate2   = 030000,
(PID.TID 0000.0001) > atempperiod       = 21600.0,
(PID.TID 0000.0001) >#
(PID.TID 0000.0001) > aqhstartdate1     = 19920101,
(PID.TID 0000.0001) > aqhstartdate2     = 030000,
(PID.TID 0000.0001) > aqhperiod         = 21600.0,
(PID.TID 0000.0001) >#
(PID.TID 0000.0001) > precipstartdate1  = 19920101,
(PID.TID 0000.0001) > precipstartdate2  = 030000,
(PID.TID 0000.0001) > precipperiod      = 21600.0,
(PID.TID 0000.0001) >#
(PID.TID 0000.0001) > runofffile        = 'runoff-2d-Fekete-1deg-mon-V4-SMOOTH.bin',
(PID.TID 0000.0001) > runoffperiod      = -12,
(PID.TID 0000.0001) >#
(PID.TID 0000.0001) > uwindstartdate1   = 19920101,
(PID.TID 0000.0001) > uwindstartdate2   = 030000,
(PID.TID 0000.0001) > uwindperiod       = 21600.0,
(PID.TID 0000.0001) >#
(PID.TID 0000.0001) > vwindstartdate1   = 19920101,
(PID.TID 0000.0001) > vwindstartdate2   = 030000,
(PID.TID 0000.0001) > vwindperiod       = 21600.0,
(PID.TID 0000.0001) >#
(PID.TID 0000.0001) > wspeedstartdate1   = 19920101,
(PID.TID 0000.0001) > wspeedstartdate2   = 030000,
(PID.TID 0000.0001) > wspeedperiod       = 21600.0,
(PID.TID 0000.0001) >#
(PID.TID 0000.0001) > swdownstartdate1  = 19920101,
(PID.TID 0000.0001) > swdownstartdate2  = 030000,
(PID.TID 0000.0001) > swdownperiod      = 21600.0,
(PID.TID 0000.0001) >#
(PID.TID 0000.0001) > lwdownstartdate1  = 19920101,
(PID.TID 0000.0001) > lwdownstartdate2  = 030000,
(PID.TID 0000.0001) > lwdownperiod      = 21600.0,
(PID.TID 0000.0001) >#
(PID.TID 0000.0001) > apressurestartdate1   = 19920101,
(PID.TID 0000.0001) > apressurestartdate2   = 030000,
(PID.TID 0000.0001) > apressureperiod       = 21600.0,
(PID.TID 0000.0001) >#
(PID.TID 0000.0001) > climsstperiod     = -12.,
(PID.TID 0000.0001) >#climsssfile       = 'SSS_WPv1_M_eccollc_90x50.bin',
(PID.TID 0000.0001) > climsssperiod     = -12.,
(PID.TID 0000.0001) >#climsssTauRelax   = 15768000.,
(PID.TID 0000.0001) > /
(PID.TID 0000.0001) >#
(PID.TID 0000.0001) > &EXF_NML_03
(PID.TID 0000.0001) >#NOT FOR EIG exf_offset_atemp  = 273.3971,
(PID.TID 0000.0001) > exf_offset_atemp  = 273.15,
(PID.TID 0000.0001) > exf_inscal_swdown = -1.0,
(PID.TID 0000.0001) > exf_inscal_lwdown = -1.0,
(PID.TID 0000.0001) > exf_inscal_ustress = -1.0,
(PID.TID 0000.0001) > exf_inscal_vstress = -1.0,
(PID.TID 0000.0001) > /
(PID.TID 0000.0001) >#
(PID.TID 0000.0001) > &EXF_NML_04
(PID.TID 0000.0001) > runoff_interpMethod = 0,
(PID.TID 0000.0001) > climsss_interpMethod = 0,
(PID.TID 0000.0001) >#
(PID.TID 0000.0001) > ustress_lon0        =   0.0000000D0,
(PID.TID 0000.0001) > ustress_lon_inc     =   0.7031250D0,
(PID.TID 0000.0001) > ustress_lat0        = -89.4628220D0,
(PID.TID 0000.0001) > ustress_lat_inc     = 0.6958694,0.6999817,0.7009048,0.7012634,0.7014313,
(PID.TID 0000.0001) >                     245*0.7017418,
(PID.TID 0000.0001) >                     0.7014313,0.7012634,0.7009048,0.6999817,0.6958694
(PID.TID 0000.0001) > ustress_nlon        = 512,
(PID.TID 0000.0001) > ustress_nlat        = 256,
(PID.TID 0000.0001) >#
(PID.TID 0000.0001) > vstress_lon0        =   0.0000000D0,
(PID.TID 0000.0001) > vstress_lon_inc     =   0.7031250D0,
(PID.TID 0000.0001) > vstress_lat0        = -89.4628220D0,
(PID.TID 0000.0001) > vstress_lat_inc     = 0.6958694,0.6999817,0.7009048,0.7012634,0.7014313,
(PID.TID 0000.0001) >                     245*0.7017418,
(PID.TID 0000.0001) >                     0.7014313,0.7012634,0.7009048,0.6999817,0.6958694
(PID.TID 0000.0001) > vstress_nlon        = 512,
(PID.TID 0000.0001) > vstress_nlat        = 256,
(PID.TID 0000.0001) >#
(PID.TID 0000.0001) > atemp_lon0        =   0.0000000D0,
(PID.TID 0000.0001) > atemp_lon_inc     =   0.7031250D0,
(PID.TID 0000.0001) > atemp_lat0        = -89.4628220D0,
(PID.TID 0000.0001) > atemp_lat_inc     = 0.6958694,0.6999817,0.7009048,0.7012634,0.7014313,
(PID.TID 0000.0001) >                     245*0.7017418,
(PID.TID 0000.0001) >                     0.7014313,0.7012634,0.7009048,0.6999817,0.6958694
(PID.TID 0000.0001) > atemp_nlon        = 512,
(PID.TID 0000.0001) > atemp_nlat        = 256,
(PID.TID 0000.0001) >#
(PID.TID 0000.0001) > aqh_lon0        =   0.0000000D0,
(PID.TID 0000.0001) > aqh_lon_inc     =   0.7031250D0,
(PID.TID 0000.0001) > aqh_lat0        = -89.4628220D0,
(PID.TID 0000.0001) > aqh_lat_inc     = 0.6958694,0.6999817,0.7009048,0.7012634,0.7014313,
(PID.TID 0000.0001) >                     245*0.7017418,
(PID.TID 0000.0001) >                     0.7014313,0.7012634,0.7009048,0.6999817,0.6958694
(PID.TID 0000.0001) > aqh_nlon        = 512,
(PID.TID 0000.0001) > aqh_nlat        = 256,
(PID.TID 0000.0001) >#
(PID.TID 0000.0001) > precip_lon0        =   0.0000000D0,
(PID.TID 0000.0001) > precip_lon_inc     =   0.7031250D0,
(PID.TID 0000.0001) > precip_lat0        = -89.4628220D0,
(PID.TID 0000.0001) > precip_lat_inc     = 0.6958694,0.6999817,0.7009048,0.7012634,0.7014313,
(PID.TID 0000.0001) >                     245*0.7017418,
(PID.TID 0000.0001) >                     0.7014313,0.7012634,0.7009048,0.6999817,0.6958694
(PID.TID 0000.0001) > precip_nlon        = 512,
(PID.TID 0000.0001) > precip_nlat        = 256,
(PID.TID 0000.0001) >#
(PID.TID 0000.0001) > uwind_lon0        =   0.0000000D0,
(PID.TID 0000.0001) > uwind_lon_inc     =   0.7031250D0,
(PID.TID 0000.0001) > uwind_lat0        = -89.4628220D0,
(PID.TID 0000.0001) > uwind_lat_inc     = 0.6958694,0.6999817,0.7009048,0.7012634,0.7014313,
(PID.TID 0000.0001) >                     245*0.7017418,
(PID.TID 0000.0001) >                     0.7014313,0.7012634,0.7009048,0.6999817,0.6958694
(PID.TID 0000.0001) > uwind_nlon        = 512,
(PID.TID 0000.0001) > uwind_nlat        = 256,
(PID.TID 0000.0001) >#
(PID.TID 0000.0001) > vwind_lon0        =   0.0000000D0,
(PID.TID 0000.0001) > vwind_lon_inc     =   0.7031250D0,
(PID.TID 0000.0001) > vwind_lat0        = -89.4628220D0,
(PID.TID 0000.0001) > vwind_lat_inc     = 0.6958694,0.6999817,0.7009048,0.7012634,0.7014313,
(PID.TID 0000.0001) >                     245*0.7017418,
(PID.TID 0000.0001) >                     0.7014313,0.7012634,0.7009048,0.6999817,0.6958694
(PID.TID 0000.0001) > vwind_nlon        = 512,
(PID.TID 0000.0001) > vwind_nlat        = 256,
(PID.TID 0000.0001) >#
(PID.TID 0000.0001) > wspeed_lon0        =   0.0000000D0,
(PID.TID 0000.0001) > wspeed_lon_inc     =   0.7031250D0,
(PID.TID 0000.0001) > wspeed_lat0        = -89.4628220D0,
(PID.TID 0000.0001) > wspeed_lat_inc     = 0.6958694,0.6999817,0.7009048,0.7012634,0.7014313,
(PID.TID 0000.0001) >                     245*0.7017418,
(PID.TID 0000.0001) >                     0.7014313,0.7012634,0.7009048,0.6999817,0.6958694
(PID.TID 0000.0001) > wspeed_nlon        = 512,
(PID.TID 0000.0001) > wspeed_nlat        = 256,
(PID.TID 0000.0001) >#
(PID.TID 0000.0001) > swdown_lon0        =   0.0000000D0,
(PID.TID 0000.0001) > swdown_lon_inc     =   0.7031250D0,
(PID.TID 0000.0001) > swdown_lat0        = -89.4628220D0,
(PID.TID 0000.0001) > swdown_lat_inc     = 0.6958694,0.6999817,0.7009048,0.7012634,0.7014313,
(PID.TID 0000.0001) >                     245*0.7017418,
(PID.TID 0000.0001) >                     0.7014313,0.7012634,0.7009048,0.6999817,0.6958694
(PID.TID 0000.0001) > swdown_nlon        = 512,
(PID.TID 0000.0001) > swdown_nlat        = 256,
(PID.TID 0000.0001) >#
(PID.TID 0000.0001) > lwdown_lon0        =   0.0000000D0,
(PID.TID 0000.0001) > lwdown_lon_inc     =   0.7031250D0,
(PID.TID 0000.0001) > lwdown_lat0        = -89.4628220D0,
(PID.TID 0000.0001) > lwdown_lat_inc     = 0.6958694,0.6999817,0.7009048,0.7012634,0.7014313,
(PID.TID 0000.0001) >                     245*0.7017418,
(PID.TID 0000.0001) >                     0.7014313,0.7012634,0.7009048,0.6999817,0.6958694
(PID.TID 0000.0001) > lwdown_nlon        = 512,
(PID.TID 0000.0001) > lwdown_nlat        = 256,
(PID.TID 0000.0001) >#
(PID.TID 0000.0001) > apressure_lon0        =   0.0000000D0,
(PID.TID 0000.0001) > apressure_lon_inc     =   0.7031250D0,
(PID.TID 0000.0001) > apressure_lat0        = -89.4628220D0,
(PID.TID 0000.0001) > apressure_lat_inc     = 0.6958694,0.6999817,0.7009048,0.7012634,0.7014313,
(PID.TID 0000.0001) >                     245*0.7017418,
(PID.TID 0000.0001) >                     0.7014313,0.7012634,0.7009048,0.6999817,0.6958694
(PID.TID 0000.0001) > apressure_nlon        = 512,
(PID.TID 0000.0001) > apressure_nlat        = 256,
(PID.TID 0000.0001) >#
(PID.TID 0000.0001) > /
(PID.TID 0000.0001) 
(PID.TID 0000.0001) EXF_READPARMS: reading EXF_NML_01
(PID.TID 0000.0001) EXF_READPARMS: reading EXF_NML_02
(PID.TID 0000.0001) EXF_READPARMS: reading EXF_NML_03
(PID.TID 0000.0001) EXF_READPARMS: reading EXF_NML_04
(PID.TID 0000.0001) EXF_READPARMS: finished reading data.exf
(PID.TID 0000.0001)  GGL90_READPARMS: opening data.ggl90
(PID.TID 0000.0001)  OPEN_COPY_DATA_FILE: opening file data.ggl90
(PID.TID 0000.0001) // =======================================================
(PID.TID 0000.0001) // Parameter file "data.ggl90"
(PID.TID 0000.0001) // =======================================================
(PID.TID 0000.0001) ># =====================================================================
(PID.TID 0000.0001) ># | Parameters for Gaspar et al. (1990)'s TKE vertical mixing scheme  |
(PID.TID 0000.0001) ># =====================================================================
(PID.TID 0000.0001) > &GGL90_PARM01
(PID.TID 0000.0001) ># GGL90taveFreq = 345600000.,
(PID.TID 0000.0001) ># GGL90dumpFreq = 86400.,
(PID.TID 0000.0001) ># GGL90writeState=.FALSE.,
(PID.TID 0000.0001) ># GGL90diffTKEh=3.e3,
(PID.TID 0000.0001) > GGL90alpha=30.,
(PID.TID 0000.0001) ># GGL90TKEFile = 'TKE_init.bin',
(PID.TID 0000.0001) > GGL90TKEmin  = 1.e-7,
(PID.TID 0000.0001) > GGL90TKEbottom = 1.e-6,
(PID.TID 0000.0001) > mxlMaxFlag =2,
(PID.TID 0000.0001) > mxlSurfFlag=.TRUE.,
(PID.TID 0000.0001) > /
(PID.TID 0000.0001) 
(PID.TID 0000.0001)  GGL90_READPARMS: finished reading data.ggl90
(PID.TID 0000.0001) // =======================================================
(PID.TID 0000.0001) // GGL90 configuration
(PID.TID 0000.0001) // =======================================================
(PID.TID 0000.0001) GGL90dumpFreq =   /* GGL90 state write out interval ( s ). */
(PID.TID 0000.0001)                 0.000000000000000E+00
(PID.TID 0000.0001)     ;
(PID.TID 0000.0001) GGL90taveFreq =   /* GGL90 averaging interval ( s ). */
(PID.TID 0000.0001)                 0.000000000000000E+00
(PID.TID 0000.0001)     ;
(PID.TID 0000.0001) GGL90mixingMAPS =   /* GGL90 IO flag. */
(PID.TID 0000.0001)                   F
(PID.TID 0000.0001)     ;
(PID.TID 0000.0001) GGL90writeState =   /* GGL90 IO flag. */
(PID.TID 0000.0001)                   F
(PID.TID 0000.0001)     ;
(PID.TID 0000.0001) GGL90ck =   /* GGL90 viscosity parameter. */
(PID.TID 0000.0001)                 1.000000000000000E-01
(PID.TID 0000.0001)     ;
(PID.TID 0000.0001) GGL90ceps =   /* GGL90 dissipation parameter. */
(PID.TID 0000.0001)                 7.000000000000000E-01
(PID.TID 0000.0001)     ;
(PID.TID 0000.0001) GGL90alpha =   /* GGL90 TKE diffusivity parameter. */
(PID.TID 0000.0001)                 3.000000000000000E+01
(PID.TID 0000.0001)     ;
(PID.TID 0000.0001) GGL90m2 =   /* GGL90 wind stress to vertical stress ratio. */
(PID.TID 0000.0001)                 3.750000000000000E+00
(PID.TID 0000.0001)     ;
(PID.TID 0000.0001) GGL90TKEmin =   /* GGL90 minimum kinetic energy ( m^2/s^2 ). */
(PID.TID 0000.0001)                 1.000000000000000E-07
(PID.TID 0000.0001)     ;
(PID.TID 0000.0001) GGL90TKEsurfMin =   /* GGL90 minimum surface kinetic energy ( m^2/s^2 ). */
(PID.TID 0000.0001)                 1.000000000000000E-04
(PID.TID 0000.0001)     ;
(PID.TID 0000.0001) GGL90TKEbottom =   /* GGL90 bottom kinetic energy ( m^2/s^2 ). */
(PID.TID 0000.0001)                 1.000000000000000E-06
(PID.TID 0000.0001)     ;
(PID.TID 0000.0001) GGL90viscMax =   /* GGL90 upper limit for viscosity ( m^2/s ). */
(PID.TID 0000.0001)                 1.000000000000000E+02
(PID.TID 0000.0001)     ;
(PID.TID 0000.0001) GGL90diffMax =   /* GGL90 upper limit for diffusivity ( m^2/s ). */
(PID.TID 0000.0001)                 1.000000000000000E+02
(PID.TID 0000.0001)     ;
(PID.TID 0000.0001) GGL90diffTKEh =   /* GGL90 horizontal diffusivity for TKE ( m^2/s ). */
(PID.TID 0000.0001)                 0.000000000000000E+00
(PID.TID 0000.0001)     ;
(PID.TID 0000.0001) GGL90mixingLengthMin =   /* GGL90 minimum mixing length ( m ). */
(PID.TID 0000.0001)                 1.000000000000000E-08
(PID.TID 0000.0001)     ;
(PID.TID 0000.0001) mxlMaxFlag =   /* Flag for limiting mixing-length method */
(PID.TID 0000.0001)                       2
(PID.TID 0000.0001)     ;
(PID.TID 0000.0001) mxlSurfFlag =   /* GGL90 flag for near surface mixing. */
(PID.TID 0000.0001)                   T
(PID.TID 0000.0001)     ;
(PID.TID 0000.0001) GGL90: GGL90TKEFile =
(PID.TID 0000.0001) GGL90writeState =   /* GGL90 Boundary condition flag. */
(PID.TID 0000.0001)                   T
(PID.TID 0000.0001)     ;
(PID.TID 0000.0001) // =======================================================
(PID.TID 0000.0001) // End of GGL90 config. summary
(PID.TID 0000.0001) // =======================================================
(PID.TID 0000.0001) 
(PID.TID 0000.0001)  GM_READPARMS: opening data.gmredi
(PID.TID 0000.0001)  OPEN_COPY_DATA_FILE: opening file data.gmredi
(PID.TID 0000.0001) // =======================================================
(PID.TID 0000.0001) // Parameter file "data.gmredi"
(PID.TID 0000.0001) // =======================================================
(PID.TID 0000.0001) ># GM+Redi package parameters:
(PID.TID 0000.0001) >#     GM_Small_Number  :: epsilon used in computing the slope
(PID.TID 0000.0001) >#     GM_slopeSqCutoff :: slope^2 cut-off value
(PID.TID 0000.0001) >
(PID.TID 0000.0001) >#-from MOM :
(PID.TID 0000.0001) ># GM_background_K: 	G & Mc.W  diffusion coefficient
(PID.TID 0000.0001) ># GM_maxSlope    :	max slope of isopycnals
(PID.TID 0000.0001) ># GM_Scrit       :	transition for scaling diffusion coefficient
(PID.TID 0000.0001) ># GM_Sd          :	half width scaling for diffusion coefficient
(PID.TID 0000.0001) ># GM_taper_scheme:	slope clipping or one of the tapering schemes
(PID.TID 0000.0001) ># GM_Kmin_horiz  :	horizontal diffusion minimum value
(PID.TID 0000.0001) >
(PID.TID 0000.0001) >#-Option parameters (needs to "define" options in GMREDI_OPTIONS.h")
(PID.TID 0000.0001) ># GM_isopycK     :	isopycnal diffusion coefficient (default=GM_background_K)
(PID.TID 0000.0001) ># GM_AdvForm     :	turn on GM Advective form       (default=Skew flux form)
(PID.TID 0000.0001) >
(PID.TID 0000.0001) > &GM_PARM01
(PID.TID 0000.0001) >  GM_Small_Number  = 1.D-20,
(PID.TID 0000.0001) >  GM_slopeSqCutoff = 1.D+08,
(PID.TID 0000.0001) >  GM_AdvForm         = .TRUE.,
(PID.TID 0000.0001) >  GM_isopycK         = 1.D+3,
(PID.TID 0000.0001) >  GM_background_K    = 1.D+3,
(PID.TID 0000.0001) >  GM_maxSlope        = 4.D-3,
(PID.TID 0000.0001) >  GM_taper_scheme    = 'stableGmAdjTap',
(PID.TID 0000.0001) >  GM_Kmin_horiz      = 100.,
(PID.TID 0000.0001) >  GM_Scrit           = 4.D-3,
(PID.TID 0000.0001) >  GM_Sd              = 1.D-3,
(PID.TID 0000.0001) >#
(PID.TID 0000.0001) >###  GM_Visbeck_alpha   = 1.5D-2,
(PID.TID 0000.0001) >###  GM_Visbeck_alpha   = 0.D0,
(PID.TID 0000.0001) >###  GM_Visbeck_length  = 2.D+5,
(PID.TID 0000.0001) >###  GM_Visbeck_depth   = 1.D+3,
(PID.TID 0000.0001) >###  GM_Visbeck_maxval_K= 2.5D+3,
(PID.TID 0000.0001) > /
(PID.TID 0000.0001) >
(PID.TID 0000.0001) >
(PID.TID 0000.0001) 
(PID.TID 0000.0001)  GM_READPARMS: finished reading data.gmredi
(PID.TID 0000.0001) 
(PID.TID 0000.0001)  SEAICE_READPARMS: opening data.seaice
(PID.TID 0000.0001)  OPEN_COPY_DATA_FILE: opening file data.seaice
(PID.TID 0000.0001) // =======================================================
(PID.TID 0000.0001) // Parameter file "data.seaice"
(PID.TID 0000.0001) // =======================================================
(PID.TID 0000.0001) ># SEAICE parameters
(PID.TID 0000.0001) > &SEAICE_PARM01
(PID.TID 0000.0001) >      SEAICEuseTILT=.FALSE.,
(PID.TID 0000.0001) >      SEAICEpresH0=2.,
(PID.TID 0000.0001) >      SEAICEpresPow0=1,
(PID.TID 0000.0001) >      SEAICEpresPow1=1,
(PID.TID 0000.0001) >      SEAICE_strength = 2.25e4,
(PID.TID 0000.0001) >      SEAICE_drag=0.001,
(PID.TID 0000.0001) >      SEAICE_drag_south=0.002,
(PID.TID 0000.0001) >#
(PID.TID 0000.0001) >      SEAICE_multDim=1,
(PID.TID 0000.0001) >      SEAICErestoreUnderIce=.TRUE.,
(PID.TID 0000.0001) >      SEAICE_area_max=0.97,
(PID.TID 0000.0001) >      SEAICE_salt0=4.,
(PID.TID 0000.0001) >      LSR_ERROR          = 2.e-4,
(PID.TID 0000.0001) >      SEAICEuseDYNAMICS  = .TRUE.,
(PID.TID 0000.0001) >      MIN_ATEMP          = -40.,
(PID.TID 0000.0001) >      MIN_TICE           = -40.,
(PID.TID 0000.0001) >      SEAICEadvScheme    = 30,
(PID.TID 0000.0001) >      SEAICEuseFluxForm = .TRUE.,
(PID.TID 0000.0001) >      SEAICEadvSnow      = .TRUE.,
(PID.TID 0000.0001) >#      SEAICEadvSalt      = .TRUE.,
(PID.TID 0000.0001) >      SEAICEdiffKhHeff   = 400.,
(PID.TID 0000.0001) >      SEAICEdiffKhArea   = 400.,
(PID.TID 0000.0001) >      SEAICEdiffKhSnow   = 400.,
(PID.TID 0000.0001) >#      SEAICEdiffKhSalt   = 400.,
(PID.TID 0000.0001) >      SEAICEuseFlooding  = .TRUE.,
(PID.TID 0000.0001) >      SEAICE_mcPheePiston= 3.858024691358025E-05,
(PID.TID 0000.0001) >      SEAICE_frazilFrac  = 1.,
(PID.TID 0000.0001) >      SEAICE_mcPheeTaper = 0.,
(PID.TID 0000.0001) >      SEAICE_areaLossFormula=2,
(PID.TID 0000.0001) >      SEAICEheatConsFix  = .TRUE.,
(PID.TID 0000.0001) >      SEAICE_tempFrz0    = -1.96,
(PID.TID 0000.0001) >      SEAICE_dTempFrz_dS = 0.,
(PID.TID 0000.0001) >      SEAICEuseMetricTerms = .TRUE.,
(PID.TID 0000.0001) >      SEAICE_no_slip     = .TRUE.,
(PID.TID 0000.0001) >      SEAICE_clipVelocities = .TRUE.,
(PID.TID 0000.0001) >#take 33% out of (1-albedo)
(PID.TID 0000.0001) >      SEAICE_dryIceAlb   = 0.84,
(PID.TID 0000.0001) >      SEAICE_wetIceAlb   = 0.78,
(PID.TID 0000.0001) >      SEAICE_drySnowAlb  = 0.90,
(PID.TID 0000.0001) >      SEAICE_wetSnowAlb  = 0.8 ,
(PID.TID 0000.0001) >#default albedos
(PID.TID 0000.0001) >      SEAICE_dryIceAlb_south   = 0.75
(PID.TID 0000.0001) >      SEAICE_wetIceAlb_south   = 0.66
(PID.TID 0000.0001) >      SEAICE_drySnowAlb_south  = 0.84
(PID.TID 0000.0001) >      SEAICE_wetSnowAlb_south  = 0.7
(PID.TID 0000.0001) > /
(PID.TID 0000.0001) >#
(PID.TID 0000.0001) > &SEAICE_PARM02
(PID.TID 0000.0001) > /
(PID.TID 0000.0001) >
(PID.TID 0000.0001) 
(PID.TID 0000.0001)  SEAICE_READPARMS: finished reading data.seaice
(PID.TID 0000.0001) SALT_PLUME_READPARMS: opening data.salt_plume
(PID.TID 0000.0001)  OPEN_COPY_DATA_FILE: opening file data.salt_plume
(PID.TID 0000.0001) // =======================================================
(PID.TID 0000.0001) // Parameter file "data.salt_plume"
(PID.TID 0000.0001) // =======================================================
(PID.TID 0000.0001) > &SALT_PLUME_PARM01
(PID.TID 0000.0001) ># SaltPlumeCriterion = 0.4D0,
(PID.TID 0000.0001) > SPsalFRAC= 0.5D0,
(PID.TID 0000.0001) >#SPsalFRAC= 0.25D0,
(PID.TID 0000.0001) >#SPsalFRAC= 0.0D0,
(PID.TID 0000.0001) > /
(PID.TID 0000.0001) 
(PID.TID 0000.0001) SALT_PLUME_READPARMS: finished reading data.salt_plume
(PID.TID 0000.0001) AUTODIFF_READPARMS: opening data.autodiff
(PID.TID 0000.0001)  OPEN_COPY_DATA_FILE: opening file data.autodiff
(PID.TID 0000.0001) // =======================================================
(PID.TID 0000.0001) // Parameter file "data.autodiff"
(PID.TID 0000.0001) // =======================================================
(PID.TID 0000.0001) ># =========================
(PID.TID 0000.0001) ># pkg AUTODIFF parameters :
(PID.TID 0000.0001) ># =========================
(PID.TID 0000.0001) >#  inAdExact :: get an exact adjoint (no approximation) (def=.True.)
(PID.TID 0000.0001) >#
(PID.TID 0000.0001) > &AUTODIFF_PARM01
(PID.TID 0000.0001) ># inAdExact = .FALSE.,
(PID.TID 0000.0001) > useSEAICEinAdMode = .FALSE.,
(PID.TID 0000.0001) ># useKPPinAdMode = .FALSE.,
(PID.TID 0000.0001) ># useGMRediInAdMode = .FALSE.,
(PID.TID 0000.0001) > useGGL90inAdMode = .FALSE.,
(PID.TID 0000.0001) > useSALT_PLUMEinAdMode = .FALSE.,
(PID.TID 0000.0001) > viscFacInAd = 2.,
(PID.TID 0000.0001) > /
(PID.TID 0000.0001) 
(PID.TID 0000.0001) AUTODIFF_READPARMS: finished reading data.autodiff
(PID.TID 0000.0001) // ===================================
(PID.TID 0000.0001) // AUTODIFF parameters :
(PID.TID 0000.0001) // ===================================
(PID.TID 0000.0001) inAdExact = /* get an exact adjoint (no approximation) */
(PID.TID 0000.0001)                   T
(PID.TID 0000.0001)     ;
(PID.TID 0000.0001) useKPPinAdMode = /* use KPP in adjoint mode */
(PID.TID 0000.0001)                   F
(PID.TID 0000.0001)     ;
(PID.TID 0000.0001) useGMRediInAdMode = /* use GMRedi in adjoint mode */
(PID.TID 0000.0001)                   T
(PID.TID 0000.0001)     ;
(PID.TID 0000.0001) useSEAICEinAdMode = /* use SEAICE in adjoint mode */
(PID.TID 0000.0001)                   F
(PID.TID 0000.0001)     ;
(PID.TID 0000.0001) useGGL90inAdMode = /* use GGL90 in adjoint mode */
(PID.TID 0000.0001)                   F
(PID.TID 0000.0001)     ;
(PID.TID 0000.0001) useSALT_PLUMEinAdMode = /* use SALT_PLUME in adjoint mode */
(PID.TID 0000.0001)                   F
(PID.TID 0000.0001)     ;
(PID.TID 0000.0001) SEAICEuseDYNAMICSswitchInAd = /* switch On/Off SEAICE Dyn in AD mode */
(PID.TID 0000.0001)                   F
(PID.TID 0000.0001)     ;
(PID.TID 0000.0001) SEAICEuseFREEDRIFTswitchInAd= /* switch On/Off Free-Drift in AD mode */
(PID.TID 0000.0001)                   F
(PID.TID 0000.0001)     ;
(PID.TID 0000.0001) SEAICEapproxLevInAd = /* -1:SEAICE_FAKE, >0:other adjoint approximation */
(PID.TID 0000.0001)                       0
(PID.TID 0000.0001)     ;
(PID.TID 0000.0001) dumpAdVarExch = /* control adexch before dumpinp */
(PID.TID 0000.0001)                       2
(PID.TID 0000.0001)     ;
(PID.TID 0000.0001) mon_AdVarExch = /* control adexch before monitor */
(PID.TID 0000.0001)                       2
(PID.TID 0000.0001)     ;
(PID.TID 0000.0001) viscFacInAd = /* viscosity factor for adjoint */
(PID.TID 0000.0001)                 2.000000000000000E+00
(PID.TID 0000.0001)     ;
(PID.TID 0000.0001) 
(PID.TID 0000.0001) OPTIM_READPARMS: opening data.optim
(PID.TID 0000.0001)  OPEN_COPY_DATA_FILE: opening file data.optim
(PID.TID 0000.0001) // =======================================================
(PID.TID 0000.0001) // Parameter file "data.optim"
(PID.TID 0000.0001) // =======================================================
(PID.TID 0000.0001) >#
(PID.TID 0000.0001) ># ********************************
(PID.TID 0000.0001) ># Off-line optimization parameters
(PID.TID 0000.0001) ># ********************************
(PID.TID 0000.0001) > &OPTIM
(PID.TID 0000.0001) > optimcycle=0,
(PID.TID 0000.0001) > /
(PID.TID 0000.0001) 
(PID.TID 0000.0001) OPTIM_READPARMS: finished reading data.optim
(PID.TID 0000.0001) CTRL_READPARMS: opening data.ctrl
(PID.TID 0000.0001)  OPEN_COPY_DATA_FILE: opening file data.ctrl
(PID.TID 0000.0001) // =======================================================
(PID.TID 0000.0001) // Parameter file "data.ctrl"
(PID.TID 0000.0001) // =======================================================
(PID.TID 0000.0001) ># *********************
(PID.TID 0000.0001) ># ECCO controlvariables
(PID.TID 0000.0001) ># *********************
(PID.TID 0000.0001) > &ctrl_nml
(PID.TID 0000.0001) >#
(PID.TID 0000.0001) >#doSinglePrecTapelev=.TRUE.,
(PID.TID 0000.0001) > ctrlSmoothCorrel2D=.TRUE.,
(PID.TID 0000.0001) > ctrlSmoothCorrel3D=.TRUE.,
(PID.TID 0000.0001) > ctrlUseGen=.TRUE.,
(PID.TID 0000.0001) >#to start from given xx*00.data files
(PID.TID 0000.0001) ># doinitxx = .FALSE.,
(PID.TID 0000.0001) ># doMainUnpack = .FALSE.,
(PID.TID 0000.0001) >#to start from given ecco_ctrl... files
(PID.TID 0000.0001) ># doinitxx = .FALSE.,
(PID.TID 0000.0001) >#
(PID.TID 0000.0001) > /
(PID.TID 0000.0001) >#
(PID.TID 0000.0001) ># *********************
(PID.TID 0000.0001) ># names for ctrl_pack/unpack
(PID.TID 0000.0001) ># *********************
(PID.TID 0000.0001) > &ctrl_packnames
(PID.TID 0000.0001) > /
(PID.TID 0000.0001) >#
(PID.TID 0000.0001) ># *********************
(PID.TID 0000.0001) ># names for CTRL_GENARR, CTRL_GENTIM
(PID.TID 0000.0001) ># *********************
(PID.TID 0000.0001) > &CTRL_NML_GENARR
(PID.TID 0000.0001) > xx_gentim2d_weight(1) = 'wt_atemp.data',
(PID.TID 0000.0001) > xx_gentim2d_file(1)='xx_atemp',
(PID.TID 0000.0001) > xx_gentim2d_period(1)=14400.0,
(PID.TID 0000.0001) > xx_gentim2d_preproc(1,1)='replicate',
(PID.TID 0000.0001) > xx_gentim2d_preproc_i(1,1)=1,
(PID.TID 0000.0001) >#
(PID.TID 0000.0001) > xx_gentim2d_weight(2) = 'wt_precip.data',
(PID.TID 0000.0001) > xx_gentim2d_file(2)='xx_precip',
(PID.TID 0000.0001) > xx_gentim2d_period(2)=14400.0,
(PID.TID 0000.0001) > xx_gentim2d_preproc(1,2)='replicate',
(PID.TID 0000.0001) > xx_gentim2d_preproc_i(1,2)=2,
(PID.TID 0000.0001) >#
(PID.TID 0000.0001) > xx_gentim2d_weight(3) = 'wt_swdown.data',
(PID.TID 0000.0001) > xx_gentim2d_file(3)='xx_swdown',
(PID.TID 0000.0001) > xx_gentim2d_period(3)=14400.0,
(PID.TID 0000.0001) >#
(PID.TID 0000.0001) > xx_genarr3d_weight(1) = 'wt_theta.data',
(PID.TID 0000.0001) > xx_genarr3d_file(1)='xx_theta',
(PID.TID 0000.0001) > mult_genarr3d(1) = 1.,
(PID.TID 0000.0001) > xx_genarr3d_bounds(1:5,1)=-2.0,-1.9,39.,40.,0.,
(PID.TID 0000.0001) >#
(PID.TID 0000.0001) > xx_genarr3d_weight(2) = 'wt_salt.data',
(PID.TID 0000.0001) > xx_genarr3d_file(2)='xx_salt',
(PID.TID 0000.0001) > mult_genarr3d(2) = 1.,
(PID.TID 0000.0001) > xx_genarr3d_bounds(1:5,2)=29.,29.5,40.5,41.,0.,
(PID.TID 0000.0001) >#
(PID.TID 0000.0001) > xx_genarr3d_weight(3) = 'wt_kapgm.data',
(PID.TID 0000.0001) > xx_genarr3d_file(3)='xx_kapgm',
(PID.TID 0000.0001) > mult_genarr3d(3) = 1.,
(PID.TID 0000.0001) > xx_genarr3d_bounds(1:5,3)=1.E2,2.E2,0.9E4,1.E4,0.,
(PID.TID 0000.0001) >#
(PID.TID 0000.0001) > /
(PID.TID 0000.0001) >
(PID.TID 0000.0001) 
(PID.TID 0000.0001) CTRL_READPARMS: finished reading data.ctrl
(PID.TID 0000.0001) COST_READPARMS: opening data.cost
(PID.TID 0000.0001)  OPEN_COPY_DATA_FILE: opening file data.cost
(PID.TID 0000.0001) // =======================================================
(PID.TID 0000.0001) // Parameter file "data.cost"
(PID.TID 0000.0001) // =======================================================
(PID.TID 0000.0001) >#
(PID.TID 0000.0001) >#
(PID.TID 0000.0001) ># ******************
(PID.TID 0000.0001) ># cost function
(PID.TID 0000.0001) ># ******************
(PID.TID 0000.0001) > &COST_NML
(PID.TID 0000.0001) > /
(PID.TID 0000.0001) 
(PID.TID 0000.0001) COST_READPARMS: finished reading data.cost
(PID.TID 0000.0001) GRDCHK_READPARMS: opening data.grdchk
(PID.TID 0000.0001)  OPEN_COPY_DATA_FILE: opening file data.grdchk
(PID.TID 0000.0001) // =======================================================
(PID.TID 0000.0001) // Parameter file "data.grdchk"
(PID.TID 0000.0001) // =======================================================
(PID.TID 0000.0001) ># *******************
(PID.TID 0000.0001) ># ECCO gradient check
(PID.TID 0000.0001) ># *******************
(PID.TID 0000.0001) > &GRDCHK_NML
(PID.TID 0000.0001) > grdchk_eps       = 1.d-2,
(PID.TID 0000.0001) > iglopos         = 15,
(PID.TID 0000.0001) > jglopos         = 15,
(PID.TID 0000.0001) ># kglopos         = 10,
(PID.TID 0000.0001) > iGloTile         = 71,
(PID.TID 0000.0001) > nbeg             = 1,
(PID.TID 0000.0001) > nstep            = 1,
(PID.TID 0000.0001) > nend             = 4,
(PID.TID 0000.0001) > grdchkvarindex   = 203,
(PID.TID 0000.0001) > /
(PID.TID 0000.0001) 
(PID.TID 0000.0001) GRDCHK_READPARMS: finished reading data.grdchk
(PID.TID 0000.0001) 
(PID.TID 0000.0001) // =======================================================
(PID.TID 0000.0001) // Gradient check configuration  >>> START <<<
(PID.TID 0000.0001) // =======================================================
(PID.TID 0000.0001) 
(PID.TID 0000.0001)   grdchkvarindex :                        203
(PID.TID 0000.0001)   eps:                              0.100E-01
(PID.TID 0000.0001)   First location:                           1
(PID.TID 0000.0001)   Last location:                            4
(PID.TID 0000.0001)   Increment:                                1
(PID.TID 0000.0001)   grdchkWhichProc:                         -1
(PID.TID 0000.0001)   iLocTile =      71  ,    jLocTile =       1
(PID.TID 0000.0001) 
(PID.TID 0000.0001) // =======================================================
(PID.TID 0000.0001) // Gradient check configuration  >>> END <<<
(PID.TID 0000.0001) // =======================================================
(PID.TID 0000.0001) 
(PID.TID 0000.0001) PROFILES_READPARMS: opening data.smooth
(PID.TID 0000.0001)  OPEN_COPY_DATA_FILE: opening file data.smooth
(PID.TID 0000.0001) // =======================================================
(PID.TID 0000.0001) // Parameter file "data.smooth"
(PID.TID 0000.0001) // =======================================================
(PID.TID 0000.0001) > &SMOOTH_NML
(PID.TID 0000.0001) > smooth2Dnbt(1)=300
(PID.TID 0000.0001) > smooth2Dtype(1)=1
(PID.TID 0000.0001) > smooth2Dsize(1)=2
(PID.TID 0000.0001) > smooth2Dfilter(1)=0
(PID.TID 0000.0001) > smooth3Dnbt(1)=300
(PID.TID 0000.0001) > smooth3DtypeH(1)=1
(PID.TID 0000.0001) > smooth3DsizeH(1)=3
(PID.TID 0000.0001) > smooth3DtypeZ(1)=1
(PID.TID 0000.0001) > smooth3DsizeZ(1)=3
(PID.TID 0000.0001) > smooth3Dfilter(1)=0
(PID.TID 0000.0001) > /
(PID.TID 0000.0001) 
(PID.TID 0000.0001) PROFILES_READPARMS: finished reading data.smooth
(PID.TID 0000.0001) ECCO_READPARMS: opening data.ecco
(PID.TID 0000.0001)  OPEN_COPY_DATA_FILE: opening file data.ecco
(PID.TID 0000.0001) // =======================================================
(PID.TID 0000.0001) // Parameter file "data.ecco"
(PID.TID 0000.0001) // =======================================================
(PID.TID 0000.0001) >#
(PID.TID 0000.0001) >#
(PID.TID 0000.0001) ># ******************
(PID.TID 0000.0001) ># ECCO cost function
(PID.TID 0000.0001) ># ******************
(PID.TID 0000.0001) >#
(PID.TID 0000.0001) > &ECCO_COST_NML
(PID.TID 0000.0001) >#
(PID.TID 0000.0001) > data_errfile    = 'data.err',
(PID.TID 0000.0001) > temp0errfile     = 'sigma_T_atlas2_eccollc.bin',
(PID.TID 0000.0001) > salt0errfile     = 'sigma_S_atlas2_eccollc.bin',
(PID.TID 0000.0001) > cost_iprec  = 32,
(PID.TID 0000.0001) > cost_yftype = 'RL',
(PID.TID 0000.0001) >#
(PID.TID 0000.0001) > /
(PID.TID 0000.0001) >#
(PID.TID 0000.0001) > &ECCO_GENCOST_NML
(PID.TID 0000.0001) >#
(PID.TID 0000.0001) >  gencost_avgperiod(1)  = 'month',
(PID.TID 0000.0001) >  gencost_barfile(1) = 'gbar_area',
(PID.TID 0000.0001) >  gencost_datafile(1) = 'nsidc79_monthly',
(PID.TID 0000.0001) >  gencost_errfile(1) = 'sigma_iceconc_eccollc.bin',
(PID.TID 0000.0001) >  gencost_name(1) = 'siv4-conc',
(PID.TID 0000.0001) >  gencost_spmin(1) = -999.,
(PID.TID 0000.0001) >  gencost_spmax(1) = 999.,
(PID.TID 0000.0001) >  gencost_spzero(1) = -9999.,
(PID.TID 0000.0001) >  gencost_outputlevel(1)=1,
(PID.TID 0000.0001) >  mult_gencost(1) = 0.,
(PID.TID 0000.0001) >#
(PID.TID 0000.0001) >  gencost_avgperiod(2)  = 'month',
(PID.TID 0000.0001) >  gencost_barfile(2) = 'gbar_deconc',
(PID.TID 0000.0001) >  gencost_name(2) = 'siv4-deconc',
(PID.TID 0000.0001) >  mult_gencost(2) = 1.,
(PID.TID 0000.0001) >  gencost_datafile(2) = 'nsidc79_monthly',
(PID.TID 0000.0001) >  gencost_spmin(2) = -999.,
(PID.TID 0000.0001) >  gencost_spmax(2) = 999.,
(PID.TID 0000.0001) >  gencost_spzero(2) = -9999.,
(PID.TID 0000.0001) >  gencost_outputlevel(2)=1,
(PID.TID 0000.0001) >#
(PID.TID 0000.0001) >  gencost_avgperiod(3)  = 'month',
(PID.TID 0000.0001) >  gencost_barfile(3) = 'gbar_exconc',
(PID.TID 0000.0001) >  gencost_name(3) = 'siv4-exconc',
(PID.TID 0000.0001) >  mult_gencost(3) = 0.,
(PID.TID 0000.0001) >  gencost_datafile(3) = 'nsidc79_monthly',
(PID.TID 0000.0001) >  gencost_spmin(3) = -999.,
(PID.TID 0000.0001) >  gencost_spmax(3) = 999.,
(PID.TID 0000.0001) >  gencost_spzero(3) = -9999.,
(PID.TID 0000.0001) >  gencost_outputlevel(3)=1,
(PID.TID 0000.0001) >#
(PID.TID 0000.0001) >  gencost_avgperiod(4)  = 'month',
(PID.TID 0000.0001) >  gencost_barfile(4) = 'sstmon',
(PID.TID 0000.0001) >  gencost_datafile(4) = 'reynolds_oiv2_r1',
(PID.TID 0000.0001) >  gencost_errfile(4) = 'sigma_surf_0p5.bin',
(PID.TID 0000.0001) >  gencost_name(4) = 'sst-reynolds',
(PID.TID 0000.0001) >  gencost_spmin(4) = -1.8,
(PID.TID 0000.0001) >  gencost_spmax(4) = 40.,
(PID.TID 0000.0001) >  gencost_spzero(4) = 0.,
(PID.TID 0000.0001) >  gencost_outputlevel(4)=1,
(PID.TID 0000.0001) >  mult_gencost(4) = 1.,
(PID.TID 0000.0001) >#
(PID.TID 0000.0001) >  gencost_avgperiod(5)  = 'month',
(PID.TID 0000.0001) >  gencost_barfile(5) = 'sstmon',
(PID.TID 0000.0001) >  gencost_datafile(5) = 'tmi_amsre_oisst_r1',
(PID.TID 0000.0001) >  gencost_errfile(5) = 'sigma_surf_0p5.bin',
(PID.TID 0000.0001) >  gencost_name(5) = 'sst-tmi-amsre',
(PID.TID 0000.0001) >  gencost_startdate1(5) = 19980101,
(PID.TID 0000.0001) >  gencost_startdate2(5)= 00000,
(PID.TID 0000.0001) >  gencost_spmin(5) = -1.8,
(PID.TID 0000.0001) >  gencost_spmax(5) = 40.,
(PID.TID 0000.0001) >  gencost_spzero(5) = 0.,
(PID.TID 0000.0001) >  gencost_outputlevel(5)=1,
(PID.TID 0000.0001) >  mult_gencost(5) = 0.,
(PID.TID 0000.0001) >#
(PID.TID 0000.0001) >  gencost_avgperiod(6)  = 'month',
(PID.TID 0000.0001) >  gencost_barfile(6) = 'bpmon',
(PID.TID 0000.0001) >  gencost_datafile(6) = 'GRACE_Ensemble_withland',
(PID.TID 0000.0001) >  gencost_errfile(6) = 'GRACE_Ensemble_withland_err',
(PID.TID 0000.0001) >  gencost_name(6) = 'bpv4-grace',
(PID.TID 0000.0001) >  gencost_outputlevel(6)=1,
(PID.TID 0000.0001) >  mult_gencost(6) = 0.,
(PID.TID 0000.0001) >#
(PID.TID 0000.0001) >  gencost_avgperiod(7)  = 'month',
(PID.TID 0000.0001) >  gencost_barfile(7) = 'thetamon',
(PID.TID 0000.0001) >  gencost_datafile(7) = 'some_T_atlas.bin',
(PID.TID 0000.0001) >  gencost_errfile(7) = 'sigma_T_atlas2_eccollc.bin',
(PID.TID 0000.0001) >#  gencost_name(7) = 'thetaclim',
(PID.TID 0000.0001) >  gencost_name(7) = 'thetarepeat',
(PID.TID 0000.0001) >  gencost_spmin(7) = -1.8,
(PID.TID 0000.0001) >  gencost_spmax(7) = 40.,
(PID.TID 0000.0001) >  gencost_spzero(7) = 0.,
(PID.TID 0000.0001) >  gencost_is3d(7)=.TRUE.,
(PID.TID 0000.0001) ># gencost_preproc(1,7)='climmon',
(PID.TID 0000.0001) >  gencost_outputlevel(7)=1,
(PID.TID 0000.0001) >  mult_gencost(7) = 0.15,
(PID.TID 0000.0001) >#
(PID.TID 0000.0001) >  gencost_avgperiod(8)  = 'month',
(PID.TID 0000.0001) >  gencost_barfile(8) = 'saltmon',
(PID.TID 0000.0001) >  gencost_datafile(8) = 'some_S_atlas.bin',
(PID.TID 0000.0001) >  gencost_errfile(8) = 'sigma_S_atlas2_eccollc.bin',
(PID.TID 0000.0001) >#  gencost_name(8) = 'saltclim',
(PID.TID 0000.0001) >  gencost_name(8) = 'saltrepeat',
(PID.TID 0000.0001) >  gencost_spmin(8) = 25.,
(PID.TID 0000.0001) >  gencost_spmax(8) = 40.,
(PID.TID 0000.0001) >  gencost_spzero(8) = 0.,
(PID.TID 0000.0001) >  gencost_is3d(8)=.TRUE.,
(PID.TID 0000.0001) ># gencost_preproc(1,8)='climmon',
(PID.TID 0000.0001) >  mult_gencost(8) = 0.15,
(PID.TID 0000.0001) >#
(PID.TID 0000.0001) >  gencost_avgperiod(9)  = 'day',
(PID.TID 0000.0001) >  gencost_barfile(9) = 'tauZonday',
(PID.TID 0000.0001) >  gencost_datafile(9) = 'QSCAT_Large_u_r2',
(PID.TID 0000.0001) ># gencost_startdate1(9) = 19990101,
(PID.TID 0000.0001) ># gencost_startdate2(9) = 00000,
(PID.TID 0000.0001) >  gencost_errfile(9) = 'QSCAT_Large_u_r2.rms',
(PID.TID 0000.0001) >  gencost_name(9) = 'tauZon-scat',
(PID.TID 0000.0001) >  gencost_spmin(9) = -999.,
(PID.TID 0000.0001) >  gencost_spmax(9) = 999.,
(PID.TID 0000.0001) >  gencost_spzero(9) = 0.,
(PID.TID 0000.0001) >  gencost_outputlevel(9)=0,
(PID.TID 0000.0001) >  mult_gencost(9) = 0.,
(PID.TID 0000.0001) >#
(PID.TID 0000.0001) >  gencost_avgperiod(10)  = 'day',
(PID.TID 0000.0001) >  gencost_barfile(10) = 'tauMerday',
(PID.TID 0000.0001) >  gencost_datafile(10) = 'QSCAT_Large_v_r2',
(PID.TID 0000.0001) ># gencost_startdate1(10) = 19990101,
(PID.TID 0000.0001) ># gencost_startdate2(10) = 00000,
(PID.TID 0000.0001) >  gencost_errfile(10) = 'QSCAT_Large_v_r2.rms',
(PID.TID 0000.0001) >  gencost_name(10) = 'tauMer-scat',
(PID.TID 0000.0001) >  gencost_spmin(10) = -999.,
(PID.TID 0000.0001) >  gencost_spmax(10) = 999.,
(PID.TID 0000.0001) >  gencost_spzero(10) = 0.,
(PID.TID 0000.0001) >  gencost_outputlevel(10)=0,
(PID.TID 0000.0001) >  mult_gencost(10) = 0.,
(PID.TID 0000.0001) >#
(PID.TID 0000.0001) > gencost_datafile(11) = 'mdt_pak09.bin',
(PID.TID 0000.0001) > gencost_startdate1(11) = 19930101,
(PID.TID 0000.0001) > gencost_startdate2(11) = 00000,
(PID.TID 0000.0001) > gencost_enddate1(11) = 20041231,
(PID.TID 0000.0001) > gencost_enddate2(11) = 00000,
(PID.TID 0000.0001) > gencost_errfile(11) = 'sigma_MDT_glob_eccollc.bin',
(PID.TID 0000.0001) > gencost_name(11) = 'sshv4-mdt',
(PID.TID 0000.0001) > gencost_scalefile(11) = 'sshv4_scale_1p5points.bin',
(PID.TID 0000.0001) > gencost_outputlevel(11)=1,
(PID.TID 0000.0001) > mult_gencost(11) = 1.,
(PID.TID 0000.0001) >#
(PID.TID 0000.0001) > gencost_barfile(12) = 'etaday',
(PID.TID 0000.0001) > gencost_datafile(12) = 'RADS_TJ_v4_noice',
(PID.TID 0000.0001) > gencost_startdate1(12) = 19920101,
(PID.TID 0000.0001) > gencost_startdate2(12) = 00000,
(PID.TID 0000.0001) > gencost_avgperiod(12)  = 'day',
(PID.TID 0000.0001) > gencost_errfile(12) = 'slaerr_gridscale_r4.err',
(PID.TID 0000.0001) > gencost_name(12) = 'sshv4-tp',
(PID.TID 0000.0001) > gencost_outputlevel(12)=1,
(PID.TID 0000.0001) > mult_gencost(12) = 1.,
(PID.TID 0000.0001) >#
(PID.TID 0000.0001) > gencost_datafile(13) = 'RADS_ERS_ENV_v4_noice',
(PID.TID 0000.0001) > gencost_startdate1(13) = 19920101,
(PID.TID 0000.0001) > gencost_startdate2(13) = 00000,
(PID.TID 0000.0001) > gencost_avgperiod(13)  = 'day',
(PID.TID 0000.0001) > gencost_errfile(13) = 'slaerr_gridscale_r4.err',
(PID.TID 0000.0001) > gencost_name(13) = 'sshv4-ers',
(PID.TID 0000.0001) > gencost_outputlevel(13)=1,
(PID.TID 0000.0001) > mult_gencost(13) = 1.,
(PID.TID 0000.0001) >#
(PID.TID 0000.0001) > gencost_datafile(14) = 'RADS_GFO_v4_noice',
(PID.TID 0000.0001) > gencost_startdate1(14) = 19920101,
(PID.TID 0000.0001) > gencost_startdate2(14) = 00000,
(PID.TID 0000.0001) > gencost_avgperiod(14)  = 'day',
(PID.TID 0000.0001) > gencost_errfile(14) = 'slaerr_gridscale_r4.err',
(PID.TID 0000.0001) > gencost_name(14) = 'sshv4-gfo',
(PID.TID 0000.0001) > gencost_outputlevel(14)=1,
(PID.TID 0000.0001) > mult_gencost(14) = 1.,
(PID.TID 0000.0001) >#
(PID.TID 0000.0001) > gencost_errfile(15) = 'slaerr_largescale_r4.err',
(PID.TID 0000.0001) > gencost_name(15) = 'sshv4-lsc',
(PID.TID 0000.0001) > gencost_scalefile(15) = 'sshv4_scale_3points.bin',
(PID.TID 0000.0001) > gencost_outputlevel(15)=1,
(PID.TID 0000.0001) > mult_gencost(15) = 1.,
(PID.TID 0000.0001) >#
(PID.TID 0000.0001) > gencost_name(16) = 'sshv4-gmsl',
(PID.TID 0000.0001) > gencost_outputlevel(16)=1,
(PID.TID 0000.0001) > mult_gencost(16) = 0.001,
(PID.TID 0000.0001) >#
(PID.TID 0000.0001) >#
(PID.TID 0000.0001) >  gencost_avgperiod(17)  = 'month',
(PID.TID 0000.0001) >  gencost_barfile(17) = 'saltmon',
(PID.TID 0000.0001) >  gencost_datafile(17) = 'some_S_atlas.bin',
(PID.TID 0000.0001) >  gencost_errfile(17) = 'sigma_surf_0p5.bin',
(PID.TID 0000.0001) >  gencost_name(17) = 'sss_repeat',
(PID.TID 0000.0001) >  gencost_spmin(17) = 25.,
(PID.TID 0000.0001) >  gencost_spmax(17) = 40.,
(PID.TID 0000.0001) >  gencost_spzero(17) = 0.,
(PID.TID 0000.0001) >  gencost_is3d(17)=.TRUE.,
(PID.TID 0000.0001) >  gencost_outputlevel(17)=1,
(PID.TID 0000.0001) >  mult_gencost(17) = 0.,
(PID.TID 0000.0001) >#
(PID.TID 0000.0001) >#gencost_errfile(18) = 'sigma_surf_0p5.bin',
(PID.TID 0000.0001) >#gencost_name(18) = 'sstv4-amsre-lsc',
(PID.TID 0000.0001) >#gencost_scalefile(18) = 'sshv4_scale_3points.bin',
(PID.TID 0000.0001) >#mult_gencost(18) = 0.,
(PID.TID 0000.0001) >#gencost_errfile(17) = 'sigma_surf_0p5.bin',
(PID.TID 0000.0001) >#gencost_name(17) = 'sstv4-amsre',
(PID.TID 0000.0001) >#gencost_datafile(17) = 'tmi_amsre_l2p_r1',
(PID.TID 0000.0001) >#mult_gencost(17) = 0.,
(PID.TID 0000.0001) >#
(PID.TID 0000.0001) > /
(PID.TID 0000.0001) >#
(PID.TID 0000.0001) 
(PID.TID 0000.0001) ECCO_READPARMS: finished reading #1: ecco_cost_nml
(PID.TID 0000.0001) ECCO_READPARMS: finished reading #2: ecco_gencost_nml
(PID.TID 0000.0001) ECCO_READPARMS: done
(PID.TID 0000.0001) PROFILES_READPARMS: opening data.profiles
(PID.TID 0000.0001)  OPEN_COPY_DATA_FILE: opening file data.profiles
(PID.TID 0000.0001) // =======================================================
(PID.TID 0000.0001) // Parameter file "data.profiles"
(PID.TID 0000.0001) // =======================================================
(PID.TID 0000.0001) >#
(PID.TID 0000.0001) ># ******************
(PID.TID 0000.0001) ># PROFILES cost function
(PID.TID 0000.0001) ># ******************
(PID.TID 0000.0001) > &PROFILES_NML
(PID.TID 0000.0001) > profilesDoGenGrid=.TRUE.,
(PID.TID 0000.0001) >#
(PID.TID 0000.0001) > /
(PID.TID 0000.0001) 
(PID.TID 0000.0001) PROFILES_READPARMS: finished reading data.profiles
(PID.TID 0000.0001)  SBO_READPARMS: opening data.sbo
(PID.TID 0000.0001)  OPEN_COPY_DATA_FILE: opening file data.sbo
(PID.TID 0000.0001) // =======================================================
(PID.TID 0000.0001) // Parameter file "data.sbo"
(PID.TID 0000.0001) // =======================================================
(PID.TID 0000.0001) >#
(PID.TID 0000.0001) ># *******************
(PID.TID 0000.0001) ># SBO Parameters
(PID.TID 0000.0001) ># *******************
(PID.TID 0000.0001) > &SBO_PARM01
(PID.TID 0000.0001) > /
(PID.TID 0000.0001) 
(PID.TID 0000.0001)  SBO_READPARMS: finished reading data.sbo
(PID.TID 0000.0001) SET_PARMS: done
==> SYSTEM CALL (from AUTODIFF_INI_MODEL_IO): > mkdir -p tapes <
(PID.TID 0000.0001) Enter INI_VERTICAL_GRID: setInterFDr=    T ; setCenterDr=    F
(PID.TID 0000.0001) tile:   4 ; Read from file tile001.mitgrid
(PID.TID 0000.0001)   => xC yC dxF dyF rA xG yG dxV dyU rAz dxC dyC rAw rAs dxG dyG
(PID.TID 0000.0001) tile:   7 ; Read from file tile001.mitgrid
(PID.TID 0000.0001)   => xC yC dxF dyF rA xG yG dxV dyU rAz dxC dyC rAw rAs dxG dyG
(PID.TID 0000.0001) tile:   8 ; Read from file tile001.mitgrid
(PID.TID 0000.0001)   => xC yC dxF dyF rA xG yG dxV dyU rAz dxC dyC rAw rAs dxG dyG
(PID.TID 0000.0001) tile:   9 ; Read from file tile001.mitgrid
(PID.TID 0000.0001)   => xC yC dxF dyF rA xG yG dxV dyU rAz dxC dyC rAw rAs dxG dyG
(PID.TID 0000.0001) %MON XC_max                       =   1.7997758946678E+02
(PID.TID 0000.0001) %MON XC_min                       =  -1.7998895680928E+02
(PID.TID 0000.0001) %MON XC_mean                      =  -6.8997670631350E+00
(PID.TID 0000.0001) %MON XC_sd                        =   1.0548127462941E+02
(PID.TID 0000.0001) %MON XG_max                       =   1.8000000000000E+02
(PID.TID 0000.0001) %MON XG_min                       =  -1.7999919444240E+02
(PID.TID 0000.0001) %MON XG_mean                      =  -6.3521159278861E+00
(PID.TID 0000.0001) %MON XG_sd                        =   1.0549598176576E+02
(PID.TID 0000.0001) %MON DXC_max                      =   1.1117680031365E+05
(PID.TID 0000.0001) %MON DXC_min                      =   1.3362789164732E+04
(PID.TID 0000.0001) %MON DXC_mean                     =   7.1345115143606E+04
(PID.TID 0000.0001) %MON DXC_sd                       =   2.6107013089865E+04
(PID.TID 0000.0001) %MON DXF_max                      =   1.1117680031365E+05
(PID.TID 0000.0001) %MON DXF_min                      =   1.3491575949394E+04
(PID.TID 0000.0001) %MON DXF_mean                     =   7.1334806791260E+04
(PID.TID 0000.0001) %MON DXF_sd                       =   2.6121349328995E+04
(PID.TID 0000.0001) %MON DXG_max                      =   1.1117747335204E+05
(PID.TID 0000.0001) %MON DXG_min                      =   1.0930409249570E+04
(PID.TID 0000.0001) %MON DXG_mean                     =   7.1313583950284E+04
(PID.TID 0000.0001) %MON DXG_sd                       =   2.6131714747840E+04
(PID.TID 0000.0001) %MON DXV_max                      =   1.1117747335204E+05
(PID.TID 0000.0001) %MON DXV_min                      =   9.4742518926426E+03
(PID.TID 0000.0001) %MON DXV_mean                     =   7.1323777998314E+04
(PID.TID 0000.0001) %MON DXV_sd                       =   2.6117603792432E+04
(PID.TID 0000.0001) %MON YC_max                       =   8.9739397429324E+01
(PID.TID 0000.0001) %MON YC_min                       =  -8.1637173529390E+01
(PID.TID 0000.0001) %MON YC_mean                      =  -5.9338515025079E-01
(PID.TID 0000.0001) %MON YC_sd                        =   5.1058908630085E+01
(PID.TID 0000.0001) %MON YG_max                       =   9.0000000000000E+01
(PID.TID 0000.0001) %MON YG_min                       =  -8.1805478609906E+01
(PID.TID 0000.0001) %MON YG_mean                      =  -5.7357831765458E-01
(PID.TID 0000.0001) %MON YG_sd                        =   5.1060174609345E+01
(PID.TID 0000.0001) %MON DYC_max                      =   1.1117680031365E+05
(PID.TID 0000.0001) %MON DYC_min                      =   1.3362789164732E+04
(PID.TID 0000.0001) %MON DYC_mean                     =   7.0982792089666E+04
(PID.TID 0000.0001) %MON DYC_sd                       =   2.6607387075348E+04
(PID.TID 0000.0001) %MON DYF_max                      =   1.1117680031365E+05
(PID.TID 0000.0001) %MON DYF_min                      =   1.3491575949394E+04
(PID.TID 0000.0001) %MON DYF_mean                     =   7.1000127494934E+04
(PID.TID 0000.0001) %MON DYF_sd                       =   2.6603606017547E+04
(PID.TID 0000.0001) %MON DYG_max                      =   1.1117747335204E+05
(PID.TID 0000.0001) %MON DYG_min                      =   1.0930409249570E+04
(PID.TID 0000.0001) %MON DYG_mean                     =   7.1022116512585E+04
(PID.TID 0000.0001) %MON DYG_sd                       =   2.6571715830406E+04
(PID.TID 0000.0001) %MON DYU_max                      =   1.1117747335204E+05
(PID.TID 0000.0001) %MON DYU_min                      =   9.4742518926426E+03
(PID.TID 0000.0001) %MON DYU_mean                     =   7.1004694583927E+04
(PID.TID 0000.0001) %MON DYU_sd                       =   2.6575655787476E+04
(PID.TID 0000.0001) %MON RA_max                       =   1.1896090857160E+10
(PID.TID 0000.0001) %MON RA_min                       =   2.1263387742345E+08
(PID.TID 0000.0001) %MON RA_mean                      =   5.6344293572480E+09
(PID.TID 0000.0001) %MON RA_sd                        =   3.5929461176606E+09
(PID.TID 0000.0001) %MON RAW_max                      =   1.1896090856781E+10
(PID.TID 0000.0001) %MON RAW_min                      =   1.7369571508711E+08
(PID.TID 0000.0001) %MON RAW_mean                     =   5.6355850434318E+09
(PID.TID 0000.0001) %MON RAW_sd                       =   3.5915487677190E+09
(PID.TID 0000.0001) %MON RAS_max                      =   1.1896090856781E+10
(PID.TID 0000.0001) %MON RAS_min                      =   1.7369571508711E+08
(PID.TID 0000.0001) %MON RAS_mean                     =   5.6320332286162E+09
(PID.TID 0000.0001) %MON RAS_sd                       =   3.5937184228135E+09
(PID.TID 0000.0001) %MON RAZ_max                      =   1.1891903479271E+10
(PID.TID 0000.0001) %MON RAZ_min                      =   1.0413402423292E+08
(PID.TID 0000.0001) %MON RAZ_mean                     =   5.6331824674695E+09
(PID.TID 0000.0001) %MON RAZ_sd                       =   3.5923307220197E+09
(PID.TID 0000.0001) %MON AngleCS_max                  =   1.0000000000000E+00
(PID.TID 0000.0001) %MON AngleCS_min                  =  -9.9996641938864E-01
(PID.TID 0000.0001) %MON AngleCS_mean                 =   4.0572930529500E-01
(PID.TID 0000.0001) %MON AngleCS_sd                   =   5.3874397836718E-01
(PID.TID 0000.0001) %MON AngleSN_max                  =   9.9996641938864E-01
(PID.TID 0000.0001) %MON AngleSN_min                  =  -1.0000000000000E+00
(PID.TID 0000.0001) %MON AngleSN_mean                 =  -4.9986154624599E-01
(PID.TID 0000.0001) %MON AngleSN_sd                   =   5.4339404779819E-01
(PID.TID 0000.0001) 
(PID.TID 0000.0001) // =======================================================
(PID.TID 0000.0001) // Calendar configuration >>> START <<<
(PID.TID 0000.0001) // =======================================================
(PID.TID 0000.0001) 
(PID.TID 0000.0001) modelstart = /* Start time of the model integration [s] */
(PID.TID 0000.0001)                 3.600000000000000E+03
(PID.TID 0000.0001)     ;
(PID.TID 0000.0001) modelend  = /* End time of the model integration [s] */
(PID.TID 0000.0001)                 3.240000000000000E+04
(PID.TID 0000.0001)     ;
(PID.TID 0000.0001) modelStep = /* Time interval for a model forward step [s] */
(PID.TID 0000.0001)                 3.600000000000000E+03
(PID.TID 0000.0001)     ;
(PID.TID 0000.0001) usingGregorianCalendar= /* Calendar Type: Gregorian Calendar */
(PID.TID 0000.0001)                   T
(PID.TID 0000.0001)     ;
(PID.TID 0000.0001) usingJulianCalendar = /* Calendar Type: Julian Calendar */
(PID.TID 0000.0001)                   F
(PID.TID 0000.0001)     ;
(PID.TID 0000.0001) usingNoLeapYearCal  = /* Calendar Type: without Leap Year */
(PID.TID 0000.0001)                   F
(PID.TID 0000.0001)     ;
(PID.TID 0000.0001) usingModelCalendar  = /* Calendar Type: Model Calendar */
(PID.TID 0000.0001)                   F
(PID.TID 0000.0001)     ;
(PID.TID 0000.0001) modelStartDate YYYYMMDD = /* Model start date YYYY-MM-DD */
(PID.TID 0000.0001)                19920101
(PID.TID 0000.0001)     ;
(PID.TID 0000.0001)   modelStartDate HHMMSS = /* Model start date HH-MM-SS  */
(PID.TID 0000.0001)                  130000
(PID.TID 0000.0001)     ;
(PID.TID 0000.0001) modelEndDate   YYYYMMDD = /* Model end date YYYY-MM-DD */
(PID.TID 0000.0001)                19920101
(PID.TID 0000.0001)     ;
(PID.TID 0000.0001)   modelEndDate   HHMMSS = /* Model end date HH-MM-SS  */
(PID.TID 0000.0001)                  210000
(PID.TID 0000.0001)     ;
(PID.TID 0000.0001) intyears = /* Number of calendar years affected by the integration */
(PID.TID 0000.0001)                       1
(PID.TID 0000.0001)     ;
(PID.TID 0000.0001) intmonths= /* Number of calendar months affected by the integration */
(PID.TID 0000.0001)                       1
(PID.TID 0000.0001)     ;
(PID.TID 0000.0001) intdays = /* Number of calendar days affected by the integration */
(PID.TID 0000.0001)                       1
(PID.TID 0000.0001)     ;
(PID.TID 0000.0001) modelIter0 = /* Base timestep number  */
(PID.TID 0000.0001)                       1
(PID.TID 0000.0001)     ;
(PID.TID 0000.0001) modelIterEnd = /* Final timestep number  */
(PID.TID 0000.0001)                       9
(PID.TID 0000.0001)     ;
(PID.TID 0000.0001) modelIntSteps= /* Number of model timesteps  */
(PID.TID 0000.0001)                       8
(PID.TID 0000.0001)     ;
(PID.TID 0000.0001) 
(PID.TID 0000.0001) // =======================================================
(PID.TID 0000.0001) // Calendar configuration  >>> END <<<
(PID.TID 0000.0001) // =======================================================
(PID.TID 0000.0001) 
(PID.TID 0000.0001) GAD_INIT_FIXED: GAD_OlMinSize=  2  0  2
(PID.TID 0000.0001) 
(PID.TID 0000.0001) // ===================================
(PID.TID 0000.0001) // GAD parameters :
(PID.TID 0000.0001) // ===================================
(PID.TID 0000.0001) tempAdvScheme =   /* Temp. Horiz.Advection scheme selector */
(PID.TID 0000.0001)                      30
(PID.TID 0000.0001)     ;
(PID.TID 0000.0001) tempVertAdvScheme =   /* Temp. Vert. Advection scheme selector */
(PID.TID 0000.0001)                       3
(PID.TID 0000.0001)     ;
(PID.TID 0000.0001) tempMultiDimAdvec =   /* use Muti-Dim Advec method for Temp */
(PID.TID 0000.0001)                   T
(PID.TID 0000.0001)     ;
(PID.TID 0000.0001) tempSOM_Advection = /* use 2nd Order Moment Advection for Temp */
(PID.TID 0000.0001)                   F
(PID.TID 0000.0001)     ;
(PID.TID 0000.0001) AdamsBashforthGt = /* apply Adams-Bashforth extrapolation on Gt */
(PID.TID 0000.0001)                   F
(PID.TID 0000.0001)     ;
(PID.TID 0000.0001) AdamsBashforth_T = /* apply Adams-Bashforth extrapolation on Temp */
(PID.TID 0000.0001)                   F
(PID.TID 0000.0001)     ;
(PID.TID 0000.0001) saltAdvScheme =   /* Salt. Horiz.advection scheme selector */
(PID.TID 0000.0001)                      30
(PID.TID 0000.0001)     ;
(PID.TID 0000.0001) saltVertAdvScheme =   /* Salt. Vert. Advection scheme selector */
(PID.TID 0000.0001)                       3
(PID.TID 0000.0001)     ;
(PID.TID 0000.0001) saltMultiDimAdvec =   /* use Muti-Dim Advec method for Salt */
(PID.TID 0000.0001)                   T
[...]
(PID.TID 0000.0001) grdchk output (c):   2  5.7743958032392E+05  5.7743958493723E+05  5.7743955471142E+05
(PID.TID 0000.0001) grdchk output (g):   2     1.5112902561668E+00  3.7074580788612E-02 -3.9763515703218E+01
(PID.TID 0000.0001) 
(PID.TID 0000.0001) grdchk output (p):   3     0     0     1    0    0   0.000000000E+00  0.000000000E+00
(PID.TID 0000.0001) grdchk output (c):   3  5.7743958032392E+05  5.7743949540960E+05  5.7743956982281E+05
(PID.TID 0000.0001) grdchk output (g):   3    -3.7206603505183E+00  3.8085341453552E-02  9.8692713482848E+01
(PID.TID 0000.0001) 
(PID.TID 0000.0001) grdchk output (p):   4     0     0     1    0    0   0.000000000E+00  0.000000000E+00
(PID.TID 0000.0001) grdchk output (c):   4  5.7743958032392E+05  5.7743954671173E+05  5.7743961746741E+05
(PID.TID 0000.0001) grdchk output (g):   4    -3.5377836902626E+00  3.7993278354406E-02  9.4116041665625E+01
(PID.TID 0000.0001) 
(PID.TID 0000.0001) grdchk  summary  :  RMS of    4 ratios =  7.4260162333017E+01
(PID.TID 0000.0001) 
(PID.TID 0000.0001) // =======================================================
(PID.TID 0000.0001) // Gradient check results  >>> END <<<
(PID.TID 0000.0001) // =======================================================
(PID.TID 0000.0001) 
(PID.TID 0000.0001)   Seconds in section "ALL                    [THE_MODEL_MAIN]":
(PID.TID 0000.0001)           User time:   4061.2799999999997
(PID.TID 0000.0001)         System time:   299.41000000000003
(PID.TID 0000.0001)     Wall clock time:   4401.9100949764252
(PID.TID 0000.0001)          No. starts:           1
(PID.TID 0000.0001)           No. stops:           1
(PID.TID 0000.0001)   Seconds in section "INITIALISE_FIXED       [THE_MODEL_MAIN]":
(PID.TID 0000.0001)           User time:   18.270000000000000
(PID.TID 0000.0001)         System time:   1.4199999999999999
(PID.TID 0000.0001)     Wall clock time:   22.052206993103027
(PID.TID 0000.0001)          No. starts:           1
(PID.TID 0000.0001)           No. stops:           1
(PID.TID 0000.0001)   Seconds in section "ADTHE_MAIN_LOOP          [ADJOINT RUN]":
(PID.TID 0000.0001)           User time:   1789.0400000000002
(PID.TID 0000.0001)         System time:   128.24000000000001
(PID.TID 0000.0001)     Wall clock time:   1947.5942361354828
(PID.TID 0000.0001)          No. starts:           1
(PID.TID 0000.0001)           No. stops:           1
(PID.TID 0000.0001)   Seconds in section "FORWARD_STEP        [MAIN_DO_LOOP]":
(PID.TID 0000.0001)           User time:   354.79000000000315
(PID.TID 0000.0001)         System time:   20.920000000000016
(PID.TID 0000.0001)     Wall clock time:   378.75108957290649
(PID.TID 0000.0001)          No. starts:          80
(PID.TID 0000.0001)           No. stops:          80
(PID.TID 0000.0001)   Seconds in section "UPDATE_R_STAR       [FORWARD_STEP]":
(PID.TID 0000.0001)           User time:   6.0500000000001819
(PID.TID 0000.0001)         System time:  9.99999999999090505E-003
(PID.TID 0000.0001)     Wall clock time:   6.0515625476837158
(PID.TID 0000.0001)          No. starts:         160
(PID.TID 0000.0001)           No. stops:         160
(PID.TID 0000.0001)   Seconds in section "LOAD_FIELDS_DRIVER  [FORWARD_STEP]":
(PID.TID 0000.0001)           User time:   7.2700000000008913
(PID.TID 0000.0001)         System time:   1.1199999999999477
(PID.TID 0000.0001)     Wall clock time:   9.3176741600036621
(PID.TID 0000.0001)          No. starts:          80
(PID.TID 0000.0001)           No. stops:          80
(PID.TID 0000.0001)   Seconds in section "EXF_GETFORCING     [LOAD_FLDS_DRIVER]":
(PID.TID 0000.0001)           User time:   6.9200000000000728
(PID.TID 0000.0001)         System time:   1.1199999999999477
(PID.TID 0000.0001)     Wall clock time:   8.2787866592407227
(PID.TID 0000.0001)          No. starts:          88
(PID.TID 0000.0001)           No. stops:          88
(PID.TID 0000.0001)   Seconds in section "EXTERNAL_FLDS_LOAD [LOAD_FLDS_DRIVER]":
(PID.TID 0000.0001)           User time:   0.0000000000000000
(PID.TID 0000.0001)         System time:   0.0000000000000000
(PID.TID 0000.0001)     Wall clock time:  1.28817558288574219E-003
(PID.TID 0000.0001)          No. starts:          88
(PID.TID 0000.0001)           No. stops:          88
(PID.TID 0000.0001)   Seconds in section "DO_ATMOSPHERIC_PHYS [FORWARD_STEP]":
(PID.TID 0000.0001)           User time:  0.14999999999963620
(PID.TID 0000.0001)         System time:   0.0000000000000000
(PID.TID 0000.0001)     Wall clock time:  0.21898937225341797
(PID.TID 0000.0001)          No. starts:          80
(PID.TID 0000.0001)           No. stops:          80
(PID.TID 0000.0001)   Seconds in section "DO_OCEANIC_PHYS     [FORWARD_STEP]":
(PID.TID 0000.0001)           User time:   119.84999999999945
(PID.TID 0000.0001)         System time:   6.4000000000000341
(PID.TID 0000.0001)     Wall clock time:   126.37569093704224
(PID.TID 0000.0001)          No. starts:          80
(PID.TID 0000.0001)           No. stops:          80
(PID.TID 0000.0001)   Seconds in section "SEAICE_MODEL    [DO_OCEANIC_PHYS]":
(PID.TID 0000.0001)           User time:   43.049999999999272
(PID.TID 0000.0001)         System time:   3.2199999999997999
(PID.TID 0000.0001)     Wall clock time:   46.341415166854858
(PID.TID 0000.0001)          No. starts:          88
(PID.TID 0000.0001)           No. stops:          88
(PID.TID 0000.0001)   Seconds in section "SEAICE_DYNSOLVER   [SEAICE_MODEL]":
(PID.TID 0000.0001)           User time:   40.860000000000127
(PID.TID 0000.0001)         System time:   2.7799999999997453
(PID.TID 0000.0001)     Wall clock time:   43.699930191040039
(PID.TID 0000.0001)          No. starts:          88
(PID.TID 0000.0001)           No. stops:          88
(PID.TID 0000.0001)   Seconds in section "GGL90_CALC [DO_OCEANIC_PHYS]":
(PID.TID 0000.0001)           User time:   27.860000000001946
(PID.TID 0000.0001)         System time:  9.99999999999090505E-003
(PID.TID 0000.0001)     Wall clock time:   27.805976390838623
(PID.TID 0000.0001)          No. starts:         352
(PID.TID 0000.0001)           No. stops:         352
(PID.TID 0000.0001)   Seconds in section "DYNAMICS            [FORWARD_STEP]":
(PID.TID 0000.0001)           User time:   85.890000000000327
(PID.TID 0000.0001)         System time:  1.99999999999818101E-002
(PID.TID 0000.0001)     Wall clock time:   86.018546342849731
(PID.TID 0000.0001)          No. starts:          80
(PID.TID 0000.0001)           No. stops:          80
(PID.TID 0000.0001)   Seconds in section "UPDATE_CG2D         [FORWARD_STEP]":
(PID.TID 0000.0001)           User time:   7.8699999999994361
(PID.TID 0000.0001)         System time:   4.4400000000000546
(PID.TID 0000.0001)     Wall clock time:   12.352772951126099
(PID.TID 0000.0001)          No. starts:          80
(PID.TID 0000.0001)           No. stops:          80
(PID.TID 0000.0001)   Seconds in section "SOLVE_FOR_PRESSURE  [FORWARD_STEP]":
(PID.TID 0000.0001)           User time:   11.619999999999891
(PID.TID 0000.0001)         System time:   1.2099999999999795
(PID.TID 0000.0001)     Wall clock time:   12.773112773895264
(PID.TID 0000.0001)          No. starts:          80
(PID.TID 0000.0001)           No. stops:          80
(PID.TID 0000.0001)   Seconds in section "MOM_CORRECTION_STEP [FORWARD_STEP]":
(PID.TID 0000.0001)           User time:   1.3699999999989814
(PID.TID 0000.0001)         System time:   0.0000000000000000
(PID.TID 0000.0001)     Wall clock time:   1.3808410167694092
(PID.TID 0000.0001)          No. starts:          80
(PID.TID 0000.0001)           No. stops:          80
(PID.TID 0000.0001)   Seconds in section "INTEGR_CONTINUITY   [FORWARD_STEP]":
(PID.TID 0000.0001)           User time:   4.2200000000011642
(PID.TID 0000.0001)         System time:  0.24999999999994316
(PID.TID 0000.0001)     Wall clock time:   4.4788827896118164
(PID.TID 0000.0001)          No. starts:          80
(PID.TID 0000.0001)           No. stops:          80
(PID.TID 0000.0001)   Seconds in section "CALC_R_STAR         [FORWARD_STEP]":
(PID.TID 0000.0001)           User time:  0.25999999999885404
(PID.TID 0000.0001)         System time:  3.00000000000295586E-002
(PID.TID 0000.0001)     Wall clock time:  0.28014349937438965
(PID.TID 0000.0001)          No. starts:          80
(PID.TID 0000.0001)           No. stops:          80
(PID.TID 0000.0001)   Seconds in section "BLOCKING_EXCHANGES  [FORWARD_STEP]":
(PID.TID 0000.0001)           User time:   12.960000000002310
(PID.TID 0000.0001)         System time:   6.4799999999999613
(PID.TID 0000.0001)     Wall clock time:   19.485137462615967
(PID.TID 0000.0001)          No. starts:         160
(PID.TID 0000.0001)           No. stops:         160
(PID.TID 0000.0001)   Seconds in section "THERMODYNAMICS      [FORWARD_STEP]":
(PID.TID 0000.0001)           User time:   88.819999999999709
(PID.TID 0000.0001)         System time:  3.00000000000295586E-002
(PID.TID 0000.0001)     Wall clock time:   88.931420087814331
(PID.TID 0000.0001)          No. starts:          80
(PID.TID 0000.0001)           No. stops:          80
(PID.TID 0000.0001)   Seconds in section "TRC_CORRECTION_STEP [FORWARD_STEP]":
(PID.TID 0000.0001)           User time:   0.0000000000000000
(PID.TID 0000.0001)         System time:   0.0000000000000000
(PID.TID 0000.0001)     Wall clock time:  1.20425224304199219E-003
(PID.TID 0000.0001)          No. starts:          80
(PID.TID 0000.0001)           No. stops:          80
(PID.TID 0000.0001)   Seconds in section "DO_STATEVARS_TAVE   [FORWARD_STEP]":
(PID.TID 0000.0001)           User time:   0.0000000000000000
(PID.TID 0000.0001)         System time:   0.0000000000000000
(PID.TID 0000.0001)     Wall clock time:  1.16229057312011719E-003
(PID.TID 0000.0001)          No. starts:          80
(PID.TID 0000.0001)           No. stops:          80
(PID.TID 0000.0001)   Seconds in section "MONITOR             [FORWARD_STEP]":
(PID.TID 0000.0001)           User time:   1.1399999999998727
(PID.TID 0000.0001)         System time:  6.99999999999931788E-002
(PID.TID 0000.0001)     Wall clock time:   1.2077550888061523
(PID.TID 0000.0001)          No. starts:          80
(PID.TID 0000.0001)           No. stops:          80
(PID.TID 0000.0001)   Seconds in section "COST_TILE           [FORWARD_STEP]":
(PID.TID 0000.0001)           User time:   0.0000000000000000
(PID.TID 0000.0001)         System time:   0.0000000000000000
(PID.TID 0000.0001)     Wall clock time:  1.15060806274414063E-003
(PID.TID 0000.0001)          No. starts:          80
(PID.TID 0000.0001)           No. stops:          80
(PID.TID 0000.0001)   Seconds in section "DO_THE_MODEL_IO     [FORWARD_STEP]":
(PID.TID 0000.0001)           User time:   3.0900000000001455
(PID.TID 0000.0001)         System time:  0.27000000000003865
(PID.TID 0000.0001)     Wall clock time:   4.2780983448028564
(PID.TID 0000.0001)          No. starts:          80
(PID.TID 0000.0001)           No. stops:          80
(PID.TID 0000.0001)   Seconds in section "DO_WRITE_PICKUP     [FORWARD_STEP]":
(PID.TID 0000.0001)           User time:   4.2000000000002728
(PID.TID 0000.0001)         System time:  0.58999999999997499
(PID.TID 0000.0001)     Wall clock time:   5.5683691501617432
(PID.TID 0000.0001)          No. starts:          80
(PID.TID 0000.0001)           No. stops:          80
(PID.TID 0000.0001)   Seconds in section "COST_GENCOST_ALL    [ECCO SPIN-DOWN]":
(PID.TID 0000.0001)           User time:   26.470000000000255
(PID.TID 0000.0001)         System time:   1.0600000000000591
(PID.TID 0000.0001)     Wall clock time:   29.563903093338013
(PID.TID 0000.0001)          No. starts:           9
(PID.TID 0000.0001)           No. stops:           9
(PID.TID 0000.0001)   Seconds in section "CTRL_COST_DRIVER [ECCO SPIN-DOWN]":
(PID.TID 0000.0001)           User time:   10.519999999999982
(PID.TID 0000.0001)         System time:  0.23000000000001819
(PID.TID 0000.0001)     Wall clock time:   10.799714326858521
(PID.TID 0000.0001)          No. starts:           9
(PID.TID 0000.0001)           No. stops:           9
(PID.TID 0000.0001)   Seconds in section "CTRL_PACK           [THE_MODEL_MAIN]":
(PID.TID 0000.0001)           User time:   4.6399999999998727
(PID.TID 0000.0001)         System time:  0.54999999999998295
(PID.TID 0000.0001)     Wall clock time:   5.4103479385375977
(PID.TID 0000.0001)          No. starts:           1
(PID.TID 0000.0001)           No. stops:           1
(PID.TID 0000.0001)   Seconds in section "CTRL_PACK     [THE_MODEL_MAIN]":
(PID.TID 0000.0001)           User time:   4.6100000000001273
(PID.TID 0000.0001)         System time:  0.14000000000001478
(PID.TID 0000.0001)     Wall clock time:   4.8457269668579102
(PID.TID 0000.0001)          No. starts:           1
(PID.TID 0000.0001)           No. stops:           1
(PID.TID 0000.0001)   Seconds in section "GRDCHK_MAIN         [THE_MODEL_MAIN]":
(PID.TID 0000.0001)           User time:   2244.7199999999998
(PID.TID 0000.0001)         System time:   169.06000000000000
(PID.TID 0000.0001)     Wall clock time:   2422.0073299407959
(PID.TID 0000.0001)          No. starts:           1
(PID.TID 0000.0001)           No. stops:           1
(PID.TID 0000.0001)   Seconds in section "INITIALISE_VARIA    [THE_MAIN_LOOP]":
(PID.TID 0000.0001)           User time:   1912.6499999999996
(PID.TID 0000.0001)         System time:   151.86000000000007
(PID.TID 0000.0001)     Wall clock time:   2068.6603858470917
(PID.TID 0000.0001)          No. starts:           8
(PID.TID 0000.0001)           No. stops:           8
(PID.TID 0000.0001)   Seconds in section "MAIN LOOP           [THE_MAIN_LOOP]":
(PID.TID 0000.0001)           User time:   319.79999999999882
(PID.TID 0000.0001)         System time:   16.289999999999964
(PID.TID 0000.0001)     Wall clock time:   339.30695319175720
(PID.TID 0000.0001)          No. starts:           8
(PID.TID 0000.0001)           No. stops:           8
(PID.TID 0000.0001)   Seconds in section "COST_AVERAGESFIELDS [MAIN_DO_LOOP]":
(PID.TID 0000.0001)           User time:   3.6699999999977990
(PID.TID 0000.0001)         System time:   0.0000000000000000
(PID.TID 0000.0001)     Wall clock time:   3.6676735877990723
(PID.TID 0000.0001)          No. starts:          64
(PID.TID 0000.0001)           No. stops:          64
(PID.TID 0000.0001)   Seconds in section "PROFILES_INLOOP    [MAIN_DO_LOOP]":
(PID.TID 0000.0001)           User time:   0.0000000000000000
(PID.TID 0000.0001)         System time:   0.0000000000000000
(PID.TID 0000.0001)     Wall clock time:  1.69825553894042969E-003
(PID.TID 0000.0001)          No. starts:          64
(PID.TID 0000.0001)           No. stops:          64
(PID.TID 0000.0001)   Seconds in section "MAIN_DO_LOOP        [THE_MAIN_LOOP]":
(PID.TID 0000.0001)           User time:   276.20000000000300
(PID.TID 0000.0001)         System time:   14.750000000000057
(PID.TID 0000.0001)     Wall clock time:   291.49456334114075
(PID.TID 0000.0001)          No. starts:          64
(PID.TID 0000.0001)           No. stops:          64
(PID.TID 0000.0001)   Seconds in section "COST_AVERAGESFIELDS [THE_MAIN_LOOP]":
(PID.TID 0000.0001)           User time:   6.8799999999991996
(PID.TID 0000.0001)         System time:  0.37999999999999545
(PID.TID 0000.0001)     Wall clock time:   7.9903581142425537
(PID.TID 0000.0001)          No. starts:           8
(PID.TID 0000.0001)           No. stops:           8
(PID.TID 0000.0001)   Seconds in section "PROFILES_INLOOP    [THE_MAIN_LOOP]":
(PID.TID 0000.0001)           User time:   0.0000000000000000
(PID.TID 0000.0001)         System time:   0.0000000000000000
(PID.TID 0000.0001)     Wall clock time:  2.39372253417968750E-004
(PID.TID 0000.0001)          No. starts:           8
(PID.TID 0000.0001)           No. stops:           8
(PID.TID 0000.0001)   Seconds in section "ECCO_COST_DRIVER   [THE_MAIN_LOOP]":
(PID.TID 0000.0001)           User time:   32.690000000000055
(PID.TID 0000.0001)         System time:   1.1500000000000341
(PID.TID 0000.0001)     Wall clock time:   35.730924129486084
(PID.TID 0000.0001)          No. starts:           8
(PID.TID 0000.0001)           No. stops:           8
(PID.TID 0000.0001)   Seconds in section "COST_FINAL         [ADJOINT SPIN-DOWN]":
(PID.TID 0000.0001)           User time:  1.99999999999818101E-002
(PID.TID 0000.0001)         System time:  9.99999999999090505E-003
(PID.TID 0000.0001)     Wall clock time:  4.84464168548583984E-002
(PID.TID 0000.0001)          No. starts:           8
(PID.TID 0000.0001)           No. stops:           8
(PID.TID 0000.0001) // ======================================================
(PID.TID 0000.0001) // Tile <-> Tile communication statistics
(PID.TID 0000.0001) // ======================================================
(PID.TID 0000.0001) // o Tile number: 000001
(PID.TID 0000.0001) //         No. X exchanges =              0
(PID.TID 0000.0001) //            Max. X spins =              0
(PID.TID 0000.0001) //            Min. X spins =     1000000000
(PID.TID 0000.0001) //          Total. X spins =              0
(PID.TID 0000.0001) //            Avg. X spins =       0.00E+00
(PID.TID 0000.0001) //         No. Y exchanges =              0
(PID.TID 0000.0001) //            Max. Y spins =              0
(PID.TID 0000.0001) //            Min. Y spins =     1000000000
(PID.TID 0000.0001) //          Total. Y spins =              0
(PID.TID 0000.0001) //            Avg. Y spins =       0.00E+00
(PID.TID 0000.0001) // o Tile number: 000002
(PID.TID 0000.0001) //         No. X exchanges =              0
(PID.TID 0000.0001) //            Max. X spins =              0
(PID.TID 0000.0001) //            Min. X spins =     1000000000
(PID.TID 0000.0001) //          Total. X spins =              0
(PID.TID 0000.0001) //            Avg. X spins =       0.00E+00
(PID.TID 0000.0001) //         No. Y exchanges =              0
(PID.TID 0000.0001) //            Max. Y spins =              0
(PID.TID 0000.0001) //            Min. Y spins =     1000000000
(PID.TID 0000.0001) //          Total. Y spins =              0
(PID.TID 0000.0001) //            Avg. Y spins =       0.00E+00
(PID.TID 0000.0001) // o Tile number: 000003
(PID.TID 0000.0001) //         No. X exchanges =              0
(PID.TID 0000.0001) //            Max. X spins =              0
(PID.TID 0000.0001) //            Min. X spins =     1000000000
(PID.TID 0000.0001) //          Total. X spins =              0
(PID.TID 0000.0001) //            Avg. X spins =       0.00E+00
(PID.TID 0000.0001) //         No. Y exchanges =              0
(PID.TID 0000.0001) //            Max. Y spins =              0
(PID.TID 0000.0001) //            Min. Y spins =     1000000000
(PID.TID 0000.0001) //          Total. Y spins =              0
(PID.TID 0000.0001) //            Avg. Y spins =       0.00E+00
(PID.TID 0000.0001) // o Tile number: 000004
(PID.TID 0000.0001) //         No. X exchanges =              0
(PID.TID 0000.0001) //            Max. X spins =              0
(PID.TID 0000.0001) //            Min. X spins =     1000000000
(PID.TID 0000.0001) //          Total. X spins =              0
(PID.TID 0000.0001) //            Avg. X spins =       0.00E+00
(PID.TID 0000.0001) //         No. Y exchanges =              0
(PID.TID 0000.0001) //            Max. Y spins =              0
(PID.TID 0000.0001) //            Min. Y spins =     1000000000
(PID.TID 0000.0001) //          Total. Y spins =              0
(PID.TID 0000.0001) //            Avg. Y spins =       0.00E+00
(PID.TID 0000.0001) // o Thread number: 000001
(PID.TID 0000.0001) //            No. barriers =         847090
(PID.TID 0000.0001) //      Max. barrier spins =              1
(PID.TID 0000.0001) //      Min. barrier spins =              1
(PID.TID 0000.0001) //     Total barrier spins =         847090
(PID.TID 0000.0001) //      Avg. barrier spins =       1.00E+00
PROGRAM MAIN: Execution ended Normally
