(PID.TID 0000.0001) 
(PID.TID 0000.0001) // ======================================================
(PID.TID 0000.0001) //                      MITgcm UV
(PID.TID 0000.0001) //                      =========
(PID.TID 0000.0001) // ======================================================
(PID.TID 0000.0001) // execution environment starting up...
(PID.TID 0000.0001) 
(PID.TID 0000.0001) // MITgcmUV version:  checkpoint65t
(PID.TID 0000.0001) // Build user:        jamrda26
(PID.TID 0000.0001) // Build host:        bslscihub-ws2
(PID.TID 0000.0001) // Build date:        Tue Mar  1 10:56:48 GMT 2016
(PID.TID 0000.0001) 
(PID.TID 0000.0001) // =======================================================
(PID.TID 0000.0001) // Execution Environment parameter file "eedata"
(PID.TID 0000.0001) // =======================================================
(PID.TID 0000.0001) ># Example "eedata" file
(PID.TID 0000.0001) ># Lines beginning "#" are comments
(PID.TID 0000.0001) ># nTx - No. threads per process in X
(PID.TID 0000.0001) ># nTy - No. threads per process in Y
(PID.TID 0000.0001) > &EEPARMS
(PID.TID 0000.0001) > &
(PID.TID 0000.0001) ># Note: Some systems use & as the
(PID.TID 0000.0001) ># namelist terminator. Other systems
(PID.TID 0000.0001) ># use a / character (as shown here).
(PID.TID 0000.0001) 
(PID.TID 0000.0001) // =======================================================
(PID.TID 0000.0001) // Computational Grid Specification ( see files "SIZE.h" )
(PID.TID 0000.0001) //                                  ( and "eedata"       )
(PID.TID 0000.0001) // =======================================================
(PID.TID 0000.0001)      nPx =    1 ; /* No. processes in X */
(PID.TID 0000.0001)      nPy =    1 ; /* No. processes in Y */
(PID.TID 0000.0001)      nSx =    1 ; /* No. tiles in X per process */
(PID.TID 0000.0001)      nSy =    1 ; /* No. tiles in Y per process */
(PID.TID 0000.0001)      sNx =    3 ; /* Tile size in X */
(PID.TID 0000.0001)      sNy =  400 ; /* Tile size in Y */
(PID.TID 0000.0001)      OLx =    3 ; /* Tile overlap distance in X */
(PID.TID 0000.0001)      OLy =    3 ; /* Tile overlap distance in Y */
(PID.TID 0000.0001)      nTx =    1 ; /* No. threads in X per process */
(PID.TID 0000.0001)      nTy =    1 ; /* No. threads in Y per process */
(PID.TID 0000.0001)       Nr =  130 ; /* No. levels in the vertical   */
(PID.TID 0000.0001)       Nx =    3 ; /* Total domain size in X ( = nPx*nSx*sNx ) */
(PID.TID 0000.0001)       Ny =  400 ; /* Total domain size in Y ( = nPy*nSy*sNy ) */
(PID.TID 0000.0001)   nTiles =    1 ; /* Total no. tiles per process ( = nSx*nSy ) */
(PID.TID 0000.0001)   nProcs =    1 ; /* Total no. processes ( = nPx*nPy ) */
(PID.TID 0000.0001) nThreads =    1 ; /* Total no. threads per process ( = nTx*nTy ) */
(PID.TID 0000.0001) usingMPI =    T ; /* Flag used to control whether MPI is in use */
(PID.TID 0000.0001)                   /*  note: To execute a program with MPI calls */
(PID.TID 0000.0001)                   /*  it must be launched appropriately e.g     */
(PID.TID 0000.0001)                   /*  "mpirun -np 64 ......"                    */
(PID.TID 0000.0001) useCoupler=    F ;/* Flag used to control communications with   */
(PID.TID 0000.0001)                   /*  other model components, through a coupler */
(PID.TID 0000.0001) debugMode =    F ; /* print debug msg. (sequence of S/R calls)  */
(PID.TID 0000.0001) printMapIncludesZeros=    F ; /* print zeros in Std.Output maps */
(PID.TID 0000.0001) maxLengthPrt1D=   65 /* maxLength of 1D array printed to StdOut */
(PID.TID 0000.0001) 
(PID.TID 0000.0001) ======= Starting MPI parallel Run =========
(PID.TID 0000.0001)  My Processor Name (len:  7 ) = node017
(PID.TID 0000.0001)  Located at (  0,  0) on processor grid (0:  0,0:  0)
(PID.TID 0000.0001)  Origin at  (     1,     1) on global grid (1:     3,1:   400)
(PID.TID 0000.0001)  North neighbor = processor 0000
(PID.TID 0000.0001)  South neighbor = processor 0000
(PID.TID 0000.0001)   East neighbor = processor 0000
(PID.TID 0000.0001)   West neighbor = processor 0000
(PID.TID 0000.0001) // ======================================================
(PID.TID 0000.0001) // Mapping of tiles to threads
(PID.TID 0000.0001) // ======================================================
(PID.TID 0000.0001) // -o- Thread   1, tiles (   1:   1,   1:   1)
(PID.TID 0000.0001) 
(PID.TID 0000.0001) // ======================================================
(PID.TID 0000.0001) // Tile <-> Tile connectvity table
(PID.TID 0000.0001) // ======================================================
(PID.TID 0000.0001) // Tile number: 000001 (process no. = 000000)
(PID.TID 0000.0001) //        WEST: Tile = 000001, Process = 000000, Comm = put
(PID.TID 0000.0001) //                bi = 000001, bj = 000001
(PID.TID 0000.0001) //        EAST: Tile = 000001, Process = 000000, Comm = put
(PID.TID 0000.0001) //                bi = 000001, bj = 000001
(PID.TID 0000.0001) //       SOUTH: Tile = 000001, Process = 000000, Comm = put
(PID.TID 0000.0001) //                bi = 000001, bj = 000001
(PID.TID 0000.0001) //       NORTH: Tile = 000001, Process = 000000, Comm = put
(PID.TID 0000.0001) //                bi = 000001, bj = 000001
(PID.TID 0000.0001) 
(PID.TID 0000.0001)  INI_PARMS: opening model parameter file "data"
(PID.TID 0000.0001)  OPEN_COPY_DATA_FILE: opening file data
(PID.TID 0000.0001) // =======================================================
(PID.TID 0000.0001) // Parameter file "data"
(PID.TID 0000.0001) // =======================================================
(PID.TID 0000.0001) >#:::====================
(PID.TID 0000.0001) ># | Model parameters |
(PID.TID 0000.0001) ># ====================
(PID.TID 0000.0001) >#
(PID.TID 0000.0001) ># Continuous equation parameters
(PID.TID 0000.0001) > &PARM01
(PID.TID 0000.0001) ># momstepping=.FALSE.,
(PID.TID 0000.0001) ># tempstepping=.FALSE.,
(PID.TID 0000.0001) ># saltstepping=.FALSE.,
(PID.TID 0000.0001) > Tref = 50*-1.9,
(PID.TID 0000.0001) > Sref = 50*34.4,
(PID.TID 0000.0001) > viscAr=1.E-3,
(PID.TID 0000.0001) >#viscAh=600.0,
(PID.TID 0000.0001) > viscAhGrid=0.2,
(PID.TID 0000.0001) > viscA4Grid=0.02,
(PID.TID 0000.0001) > no_slip_sides=.FALSE.,
(PID.TID 0000.0001) > no_slip_bottom=.FALSE.,
(PID.TID 0000.0001) > diffKhT= 100.0,
(PID.TID 0000.0001) >#diffKhT= 600.0,
(PID.TID 0000.0001) > diffKrT=5.E-5,
(PID.TID 0000.0001) > diffKhS= 100.0, 
(PID.TID 0000.0001) >#diffKhS= 600.0,
(PID.TID 0000.0001) > diffKrS=5.E-5,
(PID.TID 0000.0001) > bottomDragQuadratic=2.5E-3,
(PID.TID 0000.0001) > staggerTimestep = .true.,
(PID.TID 0000.0001) > tempAdvScheme=30,
(PID.TID 0000.0001) > saltAdvScheme=30,
(PID.TID 0000.0001) > vectorInvariantMomentum = .true.,
(PID.TID 0000.0001) >### momImplVertAdv=.true.,
(PID.TID 0000.0001) > tempImplVertAdv=.true.,
(PID.TID 0000.0001) > saltImplVertAdv=.true.,
(PID.TID 0000.0001) > eosType='JMD95Z', 
(PID.TID 0000.0001) >#tAlpha = 2.E-4,
(PID.TID 0000.0001) >#sBeta  = 7.4E-4,
(PID.TID 0000.0001) > HeatCapacity_cp = 3974.0,
(PID.TID 0000.0001) > rhoConst=1000.,
(PID.TID 0000.0001) > rhoNil=1000.,
(PID.TID 0000.0001) > gravity=9.81,
(PID.TID 0000.0001) > gBaro=9.81,
(PID.TID 0000.0001) > implicitDiffusion = .true.,
(PID.TID 0000.0001) > implicitViscosity = .true.,
(PID.TID 0000.0001) > rigidLid=.FALSE.,
(PID.TID 0000.0001) > implicitFreeSurface=.TRUE.,
(PID.TID 0000.0001) > useRealFreshWaterFlux = .true.,
(PID.TID 0000.0001) > exactConserv=.TRUE.,
(PID.TID 0000.0001) ># start nlfs with rstar
(PID.TID 0000.0001) >#select_rStar=2,
(PID.TID 0000.0001) >nonlinFreeSurf=4,
(PID.TID 0000.0001) >hFacInf=0.2,
(PID.TID 0000.0001) >hFacSup=2.0,
(PID.TID 0000.0001) ># end nlfs with rstar
(PID.TID 0000.0001) > hFacMin=0.2,
(PID.TID 0000.0001) >#integr_GeoPot = 1,
(PID.TID 0000.0001) >#ivdc_kappa = 0.005.,
(PID.TID 0000.0001) >#implicitDiffusion=.true.,
(PID.TID 0000.0001) >#implicitViscosity=.true.,
(PID.TID 0000.0001) >#useCDscheme=.true.,
(PID.TID 0000.0001) >#nonHydrostatic=.true.,
(PID.TID 0000.0001) >#allowFreezing = .true.,
(PID.TID 0000.0001) > readBinaryPrec=64,
(PID.TID 0000.0001) >#writeBinaryPrec=64,
(PID.TID 0000.0001) > debuglevel = 1,
(PID.TID 0000.0001) > selectCoriMap = 0,
(PID.TID 0000.0001) > f0 = 0.0,
(PID.TID 0000.0001) > useSingleCpuIO=.TRUE.,
(PID.TID 0000.0001) > globalFiles=.TRUE.,
(PID.TID 0000.0001) > useCoriolis=.TRUE.,
(PID.TID 0000.0001) > &
(PID.TID 0000.0001) >
(PID.TID 0000.0001) ># Elliptic solver parameters
(PID.TID 0000.0001) > &PARM02
(PID.TID 0000.0001) > cg2dMaxIters=300,
(PID.TID 0000.0001) > cg2dTargetResidual=1.E-11,
(PID.TID 0000.0001) >#cg3dMaxIters=40,
(PID.TID 0000.0001) >#cg3dTargetResidual=1.E-13,
(PID.TID 0000.0001) > &
(PID.TID 0000.0001) >
(PID.TID 0000.0001) >#Time stepping parameters
(PID.TID 0000.0001) > &PARM03
(PID.TID 0000.0001) ># niter0=0,
(PID.TID 0000.0001) ># nTimeSteps=25920000.,
(PID.TID 0000.0001) > nTimeSteps=12,
(PID.TID 0000.0001) > startTime=2592000.,
(PID.TID 0000.0001) ># startTime = 0.,
(PID.TID 0000.0001) >#startTime=62208000.,
(PID.TID 0000.0001) >#startTime=15552000.,
(PID.TID 0000.0001) >#endTime=31104000., 
(PID.TID 0000.0001) >deltaT=300.0,
(PID.TID 0000.0001) >### deltaT=1200.0,
(PID.TID 0000.0001) > forcing_In_AB  = .false.,
(PID.TID 0000.0001) >#rCD = 0.9896,
(PID.TID 0000.0001) > abEps=0.1,
(PID.TID 0000.0001) > cAdjFreq = -1.,
(PID.TID 0000.0001) > pChkptFreq=2592000,
(PID.TID 0000.0001) > chkptFreq=2592000.0,
(PID.TID 0000.0001) ># pChkptFreq=600.0,
(PID.TID 0000.0001) ># chkptFreq=600.0,
(PID.TID 0000.0001) > monitorFreq=15552000.,
(PID.TID 0000.0001) > dumpFreq=15552000,
(PID.TID 0000.0001) > &
(PID.TID 0000.0001) >
(PID.TID 0000.0001) ># Gridding parameters
(PID.TID 0000.0001) > &PARM04
(PID.TID 0000.0001) > usingCartesianGrid=.FALSE.,
(PID.TID 0000.0001) > usingSphericalPolarGrid=.TRUE.,
(PID.TID 0000.0001) >#delR = 10., 10., 10., 10., 10., 10., 10., 10.01, 10.03, 10.11,
(PID.TID 0000.0001) >#10.32, 10.8, 11.76, 13.42, 16.04, 19.82, 24.85, 31.1, 38.42, 46.5,
(PID.TID 0000.0001) >#55., 63.5, 71.58, 78.9, 85.15, 90.18, 93.96, 96.58, 98.25, 99.25,
(PID.TID 0000.0001) >#100.01, 101.33, 104.56, 111.33, 122.83, 139.09, 158.94, 180.83, 203.55, 226.5,
(PID.TID 0000.0001) >#249.5, 272.5, 295.5, 318.5, 341.5, 364.5, 387.5, 410.5, 433.5, 456.5, 
(PID.TID 0000.0001) > delR=130*10.,
(PID.TID 0000.0001) > delX=3*.125,
(PID.TID 0000.0001) > delY=400*.0078125
(PID.TID 0000.0001) ># delYFile='dlat.bin',
(PID.TID 0000.0001) ># delY=30*10e3,
(PID.TID 0000.0001) > xgOrigin = -105.5,
(PID.TID 0000.0001) > ygOrigin =  -75.4457,
(PID.TID 0000.0001) > &
(PID.TID 0000.0001) >
(PID.TID 0000.0001) ># Input datasets
(PID.TID 0000.0001) > &PARM05
(PID.TID 0000.0001) > bathyFile='bathy101.box',
(PID.TID 0000.0001) > hydrogThetaFile='theta.init',	
(PID.TID 0000.0001) > hydrogSaltFile='salt.init',
(PID.TID 0000.0001) > pSurfInitFile='etainit.round.bin'
(PID.TID 0000.0001) > 
(PID.TID 0000.0001) > &
(PID.TID 0000.0001) 
(PID.TID 0000.0001)  INI_PARMS ; starts to read PARM01
(PID.TID 0000.0001)  INI_PARMS ; read PARM01 : OK
(PID.TID 0000.0001)  INI_PARMS ; starts to read PARM02
(PID.TID 0000.0001)  INI_PARMS ; read PARM02 : OK
(PID.TID 0000.0001)  INI_PARMS ; starts to read PARM03
(PID.TID 0000.0001)  INI_PARMS ; read PARM03 : OK
(PID.TID 0000.0001)  INI_PARMS ; starts to read PARM04
(PID.TID 0000.0001)  INI_PARMS ; read PARM04 : OK
(PID.TID 0000.0001)  INI_PARMS ; starts to read PARM05
(PID.TID 0000.0001)  INI_PARMS ; read PARM05 : OK
(PID.TID 0000.0001)  INI_PARMS: finished reading file "data"
(PID.TID 0000.0001)  PACKAGES_BOOT: opening data.pkg
(PID.TID 0000.0001)  OPEN_COPY_DATA_FILE: opening file data.pkg
(PID.TID 0000.0001) // =======================================================
(PID.TID 0000.0001) // Parameter file "data.pkg"
(PID.TID 0000.0001) // =======================================================
(PID.TID 0000.0001) ># Packages
(PID.TID 0000.0001) > &PACKAGES
(PID.TID 0000.0001) >#useKPP=.true.,
(PID.TID 0000.0001) > useOBCS=.true.,
(PID.TID 0000.0001) > useMNC=.FALSE.,
(PID.TID 0000.0001) > useShelfIce=.true.,
(PID.TID 0000.0001) > useStreamIce=.true.,
(PID.TID 0000.0001) >#useSEAICE=.true.,
(PID.TID 0000.0001) > useDiagnostics = .true.,
(PID.TID 0000.0001) > &
(PID.TID 0000.0001) 
(PID.TID 0000.0001)  PACKAGES_BOOT: finished reading data.pkg
(PID.TID 0000.0001)  PACKAGES_BOOT: On/Off package Summary
 --------  pkgs with a standard "usePKG" On/Off switch in "data.pkg":  --------
 pkg/obcs                 compiled   and   used ( useOBCS                  = T )
 pkg/shelfice             compiled   and   used ( useShelfIce              = T )
 pkg/streamice            compiled   and   used ( useStreamIce             = T )
 pkg/diagnostics          compiled   and   used ( useDiagnostics           = T )
 -------- pkgs without standard "usePKG" On/Off switch in "data.pkg":  --------
 pkg/generic_advdiff      compiled   and   used ( useGAD                   = T )
 pkg/mom_common           compiled   and   used ( momStepping              = T )
 pkg/mom_vecinv           compiled   and   used ( +vectorInvariantMomentum = T )
 pkg/mom_fluxform         compiled but not used ( & not vectorInvariantMom = F )
 pkg/monitor              compiled   and   used ( monitorFreq > 0.         = T )
 pkg/debug                compiled but not used ( debugMode                = F )
 pkg/rw                   compiled   and   used
 pkg/mdsio                compiled   and   used
(PID.TID 0000.0001)  PACKAGES_BOOT: End of package Summary
(PID.TID 0000.0001) 
(PID.TID 0000.0001)  OBCS_READPARMS: opening data.obcs
(PID.TID 0000.0001)  OPEN_COPY_DATA_FILE: opening file data.obcs
(PID.TID 0000.0001) // =======================================================
(PID.TID 0000.0001) // Parameter file "data.obcs"
(PID.TID 0000.0001) // =======================================================
(PID.TID 0000.0001) ># Open-boundaries
(PID.TID 0000.0001) > &OBCS_PARM01
(PID.TID 0000.0001) > OB_Jnorth=3*400,
(PID.TID 0000.0001) > useOBCSprescribe=.true.,
(PID.TID 0000.0001) > useOBCSsponge=.true.,
(PID.TID 0000.0001) ># OBWuFile='uvel.obw',
(PID.TID 0000.0001) > OBNvFile='vvel.obw',
(PID.TID 0000.0001) > OBNtFile='theta.obw',
(PID.TID 0000.0001) > OBNsFile='salt.obw', 
(PID.TID 0000.0001) > useOrlanskiNorth=.FALSE.,
(PID.TID 0000.0001) > &
(PID.TID 0000.0001) >
(PID.TID 0000.0001) ># Orlanski parameters
(PID.TID 0000.0001) > &OBCS_PARM02
(PID.TID 0000.0001) >#Cmax=0.45,
(PID.TID 0000.0001) >#cVelTimeScale=1000.,
(PID.TID 0000.0001) > &
(PID.TID 0000.0001) >
(PID.TID 0000.0001) ># Sponge layer parameters
(PID.TID 0000.0001) > &OBCS_PARM03
(PID.TID 0000.0001) > spongeThickness = 20,
(PID.TID 0000.0001) > Vrelaxobcsbound = 864000,
(PID.TID 0000.0001) > Urelaxobcsbound = 864000,
(PID.TID 0000.0001) > &
(PID.TID 0000.0001) 
(PID.TID 0000.0001)  OBCS_READPARMS: finished reading data.obcs
(PID.TID 0000.0001)  OB_indexUnset = /* unset OB index value (i.e. no OB) */
(PID.TID 0000.0001)                       0
(PID.TID 0000.0001)     ;
(PID.TID 0000.0001)  Northern OB global indices : OB_Jnorth =
(PID.TID 0000.0001)     3 @      400                            /* I =  1:  3 */
(PID.TID 0000.0001)  Southern OB global indices : OB_Jsouth =
(PID.TID 0000.0001)     3 @        0                            /* I =  1:  3 */
(PID.TID 0000.0001)  Eastern  OB global indices : OB_Ieast =
(PID.TID 0000.0001)   400 @        0                            /* J =  1:400 */
(PID.TID 0000.0001)  Western  OB global indices : OB_Iwest =
(PID.TID 0000.0001)   400 @        0                            /* J =  1:400 */
(PID.TID 0000.0001) 
(PID.TID 0000.0001)  SHELFICE_READPARMS: opening data.shelfice
(PID.TID 0000.0001)  OPEN_COPY_DATA_FILE: opening file data.shelfice
(PID.TID 0000.0001) // =======================================================
(PID.TID 0000.0001) // Parameter file "data.shelfice"
(PID.TID 0000.0001) // =======================================================
(PID.TID 0000.0001) ># ===================================
(PID.TID 0000.0001) ># | Parameters for SHELFICE package |
(PID.TID 0000.0001) ># ===================================
(PID.TID 0000.0001) > &SHELFICE_PARM01
(PID.TID 0000.0001) > SHELFICEwriteState = .true.,
(PID.TID 0000.0001) >#mult_shelfice=1.,
(PID.TID 0000.0001) >#useISOMIPTD = .true.,
(PID.TID 0000.0001) > SHELFICEconserve = .true.,
(PID.TID 0000.0001) > SHELFICEboundaryLayer = .true.,
(PID.TID 0000.0001) ># SHELFICEtopoFile='shelftopo.pig.bin', 
(PID.TID 0000.0001) > SHELFICEtopoFile='shelftopo.round.bin', 
(PID.TID 0000.0001) ># SHELFICEloadAnomalyFile = 'pload.pig.jmd95z',
(PID.TID 0000.0001) ># SHELFICEMassDynTendFile = 'MDS.bin',
(PID.TID 0000.0001) ># SHELFICEGroundInitFile= 'shelficegroundinit.bin',
(PID.TID 0000.0001) ># SHELFICEGroundTopoFile= 'shelftopo.ground.bin',
(PID.TID 0000.0001) > SHELFICErealFWflux =.true., 
(PID.TID 0000.0001) > SHELFICEmassFile = 'shelficemassinit.bin',
(PID.TID 0000.0001) > SHELFICEuseGammaFrict = .true., 
(PID.TID 0000.0001) > SHELFICEDragQuadratic = 0.0015,
(PID.TID 0000.0001) > shiCdrag = 0.0015
(PID.TID 0000.0001) > SHELFICEMassStepping = .true.
(PID.TID 0000.0001) > SHELFICERemeshFrequency = 2593800.0,
(PID.TID 0000.0001) > SHELFICESplitThreshold =1.25,
(PID.TID 0000.0001) > SHELFICEMergeThreshold =0.24,
(PID.TID 0000.0001) > SHELFICEEtaSponge = .true.,
(PID.TID 0000.0001) > shelficeEtaRelax = 432000.,
(PID.TID 0000.0001) > shelfice_etarestore_spongewidth = 5
(PID.TID 0000.0001) > & 
(PID.TID 0000.0001) 
(PID.TID 0000.0001)  SHELFICE_READPARMS: finished reading data.shelfice
(PID.TID 0000.0001) STREAMICE_READPARMS: opening data.streamice
(PID.TID 0000.0001)  OPEN_COPY_DATA_FILE: opening file data.streamice
(PID.TID 0000.0001) // =======================================================
(PID.TID 0000.0001) // Parameter file "data.streamice"
(PID.TID 0000.0001) // =======================================================
(PID.TID 0000.0001) ># ===================================
(PID.TID 0000.0001) ># | Parameters for STREAMICE package |
(PID.TID 0000.0001) ># ===================================
(PID.TID 0000.0001) > &STREAMICE_PARM01
(PID.TID 0000.0001) > streamice_maxnliter_cpl = 1,
(PID.TID 0000.0001) > streamice_maxcgiter_cpl = 700,
(PID.TID 0000.0001) > STREAMICE_allow_cpl=.true.
(PID.TID 0000.0001) > streamice_vel_update = 43200.,
(PID.TID 0000.0001) > streamice_density = 917.,
(PID.TID 0000.0001) > streamice_density_ocean_avg = 1028.,
(PID.TID 0000.0001) > B_glen_isothermal = 700.,
(PID.TID 0000.0001) > C_basal_fric_const = 5.,
(PID.TID 0000.0001) > n_glen = 3.0,
(PID.TID 0000.0001) > n_basal_friction = 1.,
(PID.TID 0000.0001) > streamice_diagnostic_only=.false.
(PID.TID 0000.0001) > eps_glen_min = 1.0e-12,
(PID.TID 0000.0001) > eps_u_min = 1.0e-12,
(PID.TID 0000.0001) > streamice_cg_tol = 1.0e-6,
(PID.TID 0000.0001) > STREAMICE_lower_cg_tol = .true.,
(PID.TID 0000.0001) > streamice_nonlin_tol = .000001,
(PID.TID 0000.0001) > streamice_nonlin_tol_fp = .00000001,
(PID.TID 0000.0001) > streamice_max_cg_iter = 700,
(PID.TID 0000.0001) > streamice_max_nl_iter = 50,
(PID.TID 0000.0001) > STREAMICE_calve_to_mask = .false.,
(PID.TID 0000.0001) > streamice_CFL_factor = 0.5,
(PID.TID 0000.0001) > STREAMICE_dump_mdsio = .true.,
(PID.TID 0000.0001) > streamice_bg_surf_slope_x = 0.,
(PID.TID 0000.0001) > STREAMICEthickInit='FILE',
(PID.TID 0000.0001) > STREAMICEthickFile='hinit666.box',
(PID.TID 0000.0001) ># STREAMICEthickFile='h0.bin',
(PID.TID 0000.0001) > STREAMICEtopogFile='bathy101.box',
(PID.TID 0000.0001) > STREAMICEuFaceBdryFile = 'ufacemask3.box',
(PID.TID 0000.0001) > STREAMICEvFaceBdryFile = 'vfacemask3.box',
(PID.TID 0000.0001) > STREAMICEvMassFluxFile='vmassflux3.box',
(PID.TID 0000.0001) ># STREAMICEvDirichValsFile='vdirich.box',
(PID.TID 0000.0001) > STREAMICEhmaskFile = 'hmask3.box',
(PID.TID 0000.0001) ># STREAMICEHBCyFile = 'HBCy.box',
(PID.TID 0000.0001) > STREAMICEbasalTracConfig='UNIFORM',
(PID.TID 0000.0001) > STREAMICEGlenConstConfig='UNIFORM',
(PID.TID 0000.0001) > STREAMICE_chkfixedptconvergence=.true.
(PID.TID 0000.0001) > STREAMICE_chkresidconvergence=.false.
(PID.TID 0000.0001) > streamice_buttr_width=55.e3,
(PID.TID 0000.0001) > useStreamiceFlowlineButtr=.true.
(PID.TID 0000.0001) > &
(PID.TID 0000.0001) >
(PID.TID 0000.0001) > &STREAMICE_PARM02
(PID.TID 0000.0001) > shelf_max_draft = 1300.0,
(PID.TID 0000.0001) > shelf_min_draft = 300.0,
(PID.TID 0000.0001) > shelf_edge_pos = 70.0e3,
(PID.TID 0000.0001) > shelf_slope_scale = 62.0e3,
(PID.TID 0000.0001) > shelf_flat_width = 20.0e3,
(PID.TID 0000.0001) > &
(PID.TID 0000.0001) >
(PID.TID 0000.0001) ># &STREAMICE_PARMPETSC
(PID.TID 0000.0001) ># PETSC_SOLVER_TYPE = 'CG',
(PID.TID 0000.0001) ># PETSC_PRECOND_TYPE = 'GAMG',
(PID.TID 0000.0001) ># &
(PID.TID 0000.0001) >
(PID.TID 0000.0001) > &STREAMICE_PARM03
(PID.TID 0000.0001) > min_x_noflow_north = -200.0,
(PID.TID 0000.0001) > max_x_noflow_north = 0.0,
(PID.TID 0000.0001) > min_x_noflow_south = -200.0,
(PID.TID 0000.0001) > max_x_noflow_south = 0.0,
(PID.TID 0000.0001) > min_y_noflow_WEST = 0.0,
(PID.TID 0000.0001) > max_y_noflow_WEST = 0.0,
(PID.TID 0000.0001) > min_y_noflow_EAST = -180.0,
(PID.TID 0000.0001) > max_y_noflow_EAST = 0.0,
(PID.TID 0000.0001) > min_x_noStress_NORTH = 0.0e3,
(PID.TID 0000.0001) > max_x_noStress_NORTH = 0.0e3,
(PID.TID 0000.0001) > min_x_noStress_SOUTH = 0.0e3,
(PID.TID 0000.0001) > max_x_noStress_SOUTH = 0.0e3,
(PID.TID 0000.0001) > min_y_noStress_WEST = -1.0,
(PID.TID 0000.0001) > max_y_noStress_WEST = -1.0,
(PID.TID 0000.0001) > min_y_noStress_EAST = -1.0,
(PID.TID 0000.0001) > max_y_noStress_EAST = -1.0,
(PID.TID 0000.0001) > min_x_FluxBdry_NORTH = -1.0,
(PID.TID 0000.0001) > max_x_FluxBdry_NORTH = -1.0,
(PID.TID 0000.0001) > min_x_FluxBdry_SOUTH = -1.0,
(PID.TID 0000.0001) > max_x_FluxBdry_SOUTH = -1.0,
(PID.TID 0000.0001) > min_y_FluxBdry_WEST = 0.0,
(PID.TID 0000.0001) > max_y_FluxBdry_WEST = 0.0,
(PID.TID 0000.0001) > min_y_FluxBdry_EAST = -180.0,
(PID.TID 0000.0001) > max_y_FluxBdry_EAST = 0.0,
(PID.TID 0000.0001) > min_x_Dirich_NORTH = -1.0,
(PID.TID 0000.0001) > max_x_Dirich_NORTH = -1.0,
(PID.TID 0000.0001) > min_x_Dirich_SOUTH = -1.0,
(PID.TID 0000.0001) > max_x_Dirich_SOUTH = -1.0,
(PID.TID 0000.0001) > min_y_Dirich_WEST = -1.0,
(PID.TID 0000.0001) > max_y_Dirich_WEST = -1.0,
(PID.TID 0000.0001) > min_y_Dirich_EAST = -1.0,
(PID.TID 0000.0001) > max_y_Dirich_EAST = -1.0,
(PID.TID 0000.0001) > min_x_CFBC_NORTH = -1.0,
(PID.TID 0000.0001) > max_x_CFBC_NORTH = -1.0,
(PID.TID 0000.0001) > min_x_CFBC_SOUTH = -1.0,
(PID.TID 0000.0001) > max_x_CFBC_SOUTH = -1.0,
(PID.TID 0000.0001) > min_y_CFBC_WEST = -180.0,
(PID.TID 0000.0001) > max_y_CFBC_WEST = 0.0,
(PID.TID 0000.0001) > min_y_CFBC_EAST = 0.0,
(PID.TID 0000.0001) > max_y_CFBC_EAST = 0.0e3,
(PID.TID 0000.0001) > flux_bdry_val_EAST =1.5e6,
(PID.TID 0000.0001) > STREAMICE_NS_periodic = .false.,
(PID.TID 0000.0001) > STREAMICE_EW_periodic = .false.,
(PID.TID 0000.0001) > &
(PID.TID 0000.0001) 
(PID.TID 0000.0001) STREAMICE_READPARMS: read first param block
(PID.TID 0000.0001) STREAMICE_READPARMS: read third param block
(PID.TID 0000.0001)  DIAGNOSTICS_READPARMS: opening data.diagnostics
(PID.TID 0000.0001)  OPEN_COPY_DATA_FILE: opening file data.diagnostics
(PID.TID 0000.0001) // =======================================================
(PID.TID 0000.0001) // Parameter file "data.diagnostics"
(PID.TID 0000.0001) // =======================================================
(PID.TID 0000.0001) ># Diagnostic Package Choices
(PID.TID 0000.0001) >#-----------------
(PID.TID 0000.0001) ># for each output-stream:
(PID.TID 0000.0001) >#  filename(n) : prefix of the output file name (only 8.c long) for outp.stream n
(PID.TID 0000.0001) >#  frequency(n):< 0 : write snap-shot output every |frequency| seconds
(PID.TID 0000.0001) >#               > 0 : write time-average output every frequency seconds
(PID.TID 0000.0001) >#  timePhase(n)     : write at time = timePhase + multiple of |frequency|
(PID.TID 0000.0001) >#  averagingFreq(n) : frequency (in s) for periodic averaging interval
(PID.TID 0000.0001) >#  averagingPhase(n): phase     (in s) for periodic averaging interval
(PID.TID 0000.0001) >#  repeatCycle(n)   : number of averaging intervals in 1 cycle
(PID.TID 0000.0001) >#  levels(:,n) : list of levels to write to file (Notes: declared as REAL)
(PID.TID 0000.0001) >#                 when this entry is missing, select all common levels of this list
(PID.TID 0000.0001) >#  fields(:,n) : list of diagnostics fields (8.c) (see "available_diagnostics.log"
(PID.TID 0000.0001) >#                 file for the list of all available diag. in this particular config)
(PID.TID 0000.0001) >#-----------------
(PID.TID 0000.0001) > &DIAGNOSTICS_LIST
(PID.TID 0000.0001) ># diag_mnc     = .FALSE.,
(PID.TID 0000.0001) ># dumpAtLast   = .TRUE.,
(PID.TID 0000.0001) >  fields(1:14,1) = 'ETAN    ','oceTAUX ','oceTAUY ',
(PID.TID 0000.0001) >                 'oceQnet ','oceFWflx','MXLDEPTH',
(PID.TID 0000.0001) >                'SHIfwFlx','SHIhtFlx','SHIgammT','SHIgammS',
(PID.TID 0000.0001) >                'SHI_mass','SHIuStar','SHIRshel','SHI_MEff'
(PID.TID 0000.0001) >#                 'SI_Uvel ','SI_Vvel ','SI_Thick','SI_hmask',
(PID.TID 0000.0001) >#                 'SHIuLocM','SHIvLocM','SHIwLocM','SHItLocM','SHIsLocM',
(PID.TID 0000.0001) >#		 'SHItLocB','SHIsLocB'
(PID.TID 0000.0001) >#                'SHIForcT','SHIForcS',
(PID.TID 0000.0001) >#                'surForcT','surForcS','TFLUX   ','SFLUX   ','oceFreez',
(PID.TID 0000.0001) >#                 'TRELAX  ','SRELAX  ',
(PID.TID 0000.0001) >#                'GM_VisbK',
(PID.TID 0000.0001) >#  fields(1,1)='ETAN'
(PID.TID 0000.0001) >   filename(1) = 'surfDiag',
(PID.TID 0000.0001) >  frequency(1) =  300.,
(PID.TID 0000.0001) >   fields(1:7,2) = 'UVEL    ','VVEL    ','WVEL    ',
(PID.TID 0000.0001) >                 'THETA   ','SALT    ','RHOAnoma', 'CONVADJ'
(PID.TID 0000.0001) >   filename(2) = 'dynDiag',
(PID.TID 0000.0001) >  frequency(2) =  300.,
(PID.TID 0000.0001) >   fields(1:5,3) = 'SI_Uvel ','SI_Vvel ','SI_Thick','SI_hmask','SI_float'
(PID.TID 0000.0001) >   filename(3) = 'streamice',
(PID.TID 0000.0001) >  frequency(3) =  300.,
(PID.TID 0000.0001) >#  fields(1,3) = 'EXFpreci','EXFuwind','EXFvwind','EXFtaux ','EXFtauy ',
(PID.TID 0000.0001) >#                'EXFlwdn ','EXFswdn ','EXFatemp','EXFaqh  ','EXFpress',
(PID.TID 0000.0001) >#                'GM_PsiX ','GM_PsiY ',
(PID.TID 0000.0001) >#                'GM_Kwx  ','GM_Kwy  ','GM_Kwz  ',
(PID.TID 0000.0001) >#                'GM_Kux  ','GM_Kvy  ',
(PID.TID 0000.0001) >#                'GM_Kuz  ','GM_Kvz  ',
(PID.TID 0000.0001) >#- disable this output list by commenting out the file name
(PID.TID 0000.0001) >#  filename(3) = 'diagsEXF',
(PID.TID 0000.0001) ># frequency(3) = 1.,
(PID.TID 0000.0001) >#  fields(1,4) = 'ADVx_TH ','ADVy_TH ','ADVr_TH ',
(PID.TID 0000.0001) >#                'DIFx_TH ','DIFy_TH ','DFrE_TH ',
(PID.TID 0000.0001) >#                'DFrI_TH ',
(PID.TID 0000.0001) >#                'ADVx_SLT',
(PID.TID 0000.0001) >#  filename(4) = 'flxDiag',
(PID.TID 0000.0001) ># frequency(4) = 1296000.,
(PID.TID 0000.0001) > &
(PID.TID 0000.0001) >
(PID.TID 0000.0001) ># Parameter for Diagnostics of per level statistics:
(PID.TID 0000.0001) >#-----------------
(PID.TID 0000.0001) ># for each output-stream:
(PID.TID 0000.0001) >#  stat_fname(n) : prefix of the output file name (only 8.c long) for outp.stream n
(PID.TID 0000.0001) >#  stat_freq(n):< 0 : write snap-shot output every |stat_freq| seconds
(PID.TID 0000.0001) >#               > 0 : write time-average output every stat_freq seconds
(PID.TID 0000.0001) >#  stat_phase(n)    : write at time = stat_phase + multiple of |stat_freq|
(PID.TID 0000.0001) >#  stat_region(:,n) : list of "regions" (default: 1 region only=global)
(PID.TID 0000.0001) >#  stat_fields(:,n) : list of diagnostics fields (8.c) (see "available_diagnostics.log"
(PID.TID 0000.0001) >#                 file for the list of all available diag. in this particular config)
(PID.TID 0000.0001) >#-----------------
(PID.TID 0000.0001) > &DIAG_STATIS_PARMS
(PID.TID 0000.0001) >#- regional mask: 3 lat. band: 1 : y <= -24 ; 2 : -24<y<24 ; 3 : 24 <= y
(PID.TID 0000.0001) ># diagSt_regMaskFile='regMask_lat24.bin',
(PID.TID 0000.0001) ># nSetRegMskFile=1,
(PID.TID 0000.0001) ># set_regMask(1)= 1,  1,  1,
(PID.TID 0000.0001) ># val_regMask(1)= 1., 2., 3.,
(PID.TID 0000.0001) >#---
(PID.TID 0000.0001) >#stat_fields(1,1)= 'ETAN    ','UVEL    ','VVEL    ','WVEL    ',
(PID.TID 0000.0001) >#                  'THETA   ','SALT    ','SIarea  ','SIheff  ',
(PID.TID 0000.0001) >#   stat_fname(1)= 'dynStDiag',
(PID.TID 0000.0001) >#    stat_freq(1)= 864000.,
(PID.TID 0000.0001) > &
(PID.TID 0000.0001) >
(PID.TID 0000.0001) 
(PID.TID 0000.0001) S/R DIAGNOSTICS_READPARMS, read namelist "diagnostics_list": start
(PID.TID 0000.0001) S/R DIAGNOSTICS_READPARMS, read namelist "diagnostics_list": OK
(PID.TID 0000.0001) S/R DIAGNOSTICS_READPARMS, read namelist "DIAG_STATIS_PARMS": start
(PID.TID 0000.0001) S/R DIAGNOSTICS_READPARMS, read namelist "DIAG_STATIS_PARMS": OK
(PID.TID 0000.0001)  DIAGNOSTICS_READPARMS: global parameter summary:
(PID.TID 0000.0001)  dumpAtLast = /* always write time-ave diags at the end */
(PID.TID 0000.0001)                   F
(PID.TID 0000.0001)     ;
(PID.TID 0000.0001)  diag_mnc =   /* write NetCDF output files */
(PID.TID 0000.0001)                   F
(PID.TID 0000.0001)     ;
(PID.TID 0000.0001)  useMissingValue = /* put MissingValue where mask = 0 */
(PID.TID 0000.0001)                   F
(PID.TID 0000.0001)     ;
(PID.TID 0000.0001)  diagCG_maxIters = /* max number of iters in diag_cg2d */
(PID.TID 0000.0001)                     300
(PID.TID 0000.0001)     ;
(PID.TID 0000.0001)  diagCG_resTarget = /* residual target for diag_cg2d */
(PID.TID 0000.0001)                 9.999999999999999E-12
(PID.TID 0000.0001)     ;
(PID.TID 0000.0001)  diagCG_pcOffDFac = /* preconditioner off-diagonal factor */
(PID.TID 0000.0001)                 9.611687812379854E-01
(PID.TID 0000.0001)     ;
(PID.TID 0000.0001) -----------------------------------------------------
(PID.TID 0000.0001)  DIAGNOSTICS_READPARMS: active diagnostics summary:
(PID.TID 0000.0001) -----------------------------------------------------
(PID.TID 0000.0001) Creating Output Stream: surfDiag
(PID.TID 0000.0001) Output Frequency:        300.000000 ; Phase:           0.000000
(PID.TID 0000.0001)  Averaging Freq.:        300.000000 , Phase:           0.000000 , Cycle:   1
(PID.TID 0000.0001)  missing value: -9.990000000000E+02
(PID.TID 0000.0001)  Levels:    will be set later
(PID.TID 0000.0001)  Fields:    ETAN     oceTAUX  oceTAUY  oceQnet  oceFWflx MXLDEPTH SHIfwFlx SHIhtFlx SHIgammT SHIgammS
(PID.TID 0000.0001)  Fields:    SHI_mass SHIuStar SHIRshel SHI_MEff
(PID.TID 0000.0001) Creating Output Stream: dynDiag
(PID.TID 0000.0001) Output Frequency:        300.000000 ; Phase:           0.000000
(PID.TID 0000.0001)  Averaging Freq.:        300.000000 , Phase:           0.000000 , Cycle:   1
(PID.TID 0000.0001)  missing value: -9.990000000000E+02
(PID.TID 0000.0001)  Levels:    will be set later
(PID.TID 0000.0001)  Fields:    UVEL     VVEL     WVEL     THETA    SALT     RHOAnoma CONVADJ
(PID.TID 0000.0001) Creating Output Stream: streamice
(PID.TID 0000.0001) Output Frequency:        300.000000 ; Phase:           0.000000
(PID.TID 0000.0001)  Averaging Freq.:        300.000000 , Phase:           0.000000 , Cycle:   1
(PID.TID 0000.0001)  missing value: -9.990000000000E+02
(PID.TID 0000.0001)  Levels:    will be set later
(PID.TID 0000.0001)  Fields:    SI_Uvel  SI_Vvel  SI_Thick SI_hmask SI_float
(PID.TID 0000.0001) -----------------------------------------------------
(PID.TID 0000.0001)  DIAGNOSTICS_READPARMS: statistics diags. summary:
(PID.TID 0000.0001) -----------------------------------------------------
(PID.TID 0000.0001) -----------------------------------------------------
(PID.TID 0000.0001) SET_PARMS: done
(PID.TID 0000.0001) Enter INI_VERTICAL_GRID: setInterFDr=    T ; setCenterDr=    F
(PID.TID 0000.0001) %MON XC_max                       =  -1.0518750000000E+02
(PID.TID 0000.0001) %MON XC_min                       =  -1.0543750000000E+02
(PID.TID 0000.0001) %MON XC_mean                      =  -1.0531250000000E+02
(PID.TID 0000.0001) %MON XC_sd                        =   1.0206207261597E-01
(PID.TID 0000.0001) %MON XG_max                       =  -1.0525000000000E+02
(PID.TID 0000.0001) %MON XG_min                       =  -1.0550000000000E+02
(PID.TID 0000.0001) %MON XG_mean                      =  -1.0537500000000E+02
(PID.TID 0000.0001) %MON XG_sd                        =   1.0206207261597E-01
(PID.TID 0000.0001) %MON DXC_max                      =   4.2195172956806E+03
(PID.TID 0000.0001) %MON DXC_min                      =   3.4932435587116E+03
(PID.TID 0000.0001) %MON DXC_mean                     =   3.8573295402684E+03
(PID.TID 0000.0001) %MON DXC_sd                       =   2.1019269529356E+02
(PID.TID 0000.0001) %MON DXF_max                      =   4.2195172956806E+03
(PID.TID 0000.0001) %MON DXF_min                      =   3.4932435587116E+03
(PID.TID 0000.0001) %MON DXF_mean                     =   3.8573295402684E+03
(PID.TID 0000.0001) %MON DXF_sd                       =   2.1019269529356E+02
(PID.TID 0000.0001) %MON DXG_max                      =   4.2186145466767E+03
(PID.TID 0000.0001) %MON DXG_min                      =   3.4923265038643E+03
(PID.TID 0000.0001) %MON DXG_mean                     =   3.8564194144023E+03
(PID.TID 0000.0001) %MON DXG_sd                       =   2.1019683536103E+02
(PID.TID 0000.0001) %MON DXV_max                      =   4.2186145466767E+03
(PID.TID 0000.0001) %MON DXV_min                      =   3.4923265038643E+03
(PID.TID 0000.0001) %MON DXV_mean                     =   3.8564194144023E+03
(PID.TID 0000.0001) %MON DXV_sd                       =   2.1019683536103E+02
(PID.TID 0000.0001) %MON YC_max                       =  -7.2324606250000E+01
(PID.TID 0000.0001) %MON YC_min                       =  -7.5441793750000E+01
(PID.TID 0000.0001) %MON YC_mean                      =  -7.3883199999998E+01
(PID.TID 0000.0001) %MON YC_sd                        =   9.0210697651127E-01
(PID.TID 0000.0001) %MON YG_max                       =  -7.2328512500000E+01
(PID.TID 0000.0001) %MON YG_min                       =  -7.5445700000000E+01
(PID.TID 0000.0001) %MON YG_mean                      =  -7.3887106249998E+01
(PID.TID 0000.0001) %MON YG_sd                        =   9.0210697651127E-01
(PID.TID 0000.0001) %MON DYC_max                      =   8.6857401056280E+02
(PID.TID 0000.0001) %MON DYC_min                      =   8.6857401056280E+02
(PID.TID 0000.0001) %MON DYC_mean                     =   8.6857401056282E+02
(PID.TID 0000.0001) %MON DYC_sd                       =   1.9554136088118E-11
(PID.TID 0000.0001) %MON DYF_max                      =   8.6857401056280E+02
(PID.TID 0000.0001) %MON DYF_min                      =   8.6857401056280E+02
(PID.TID 0000.0001) %MON DYF_mean                     =   8.6857401056282E+02
(PID.TID 0000.0001) %MON DYF_sd                       =   1.9554136088118E-11
(PID.TID 0000.0001) %MON DYG_max                      =   8.6857401056280E+02
(PID.TID 0000.0001) %MON DYG_min                      =   8.6857401056280E+02
(PID.TID 0000.0001) %MON DYG_mean                     =   8.6857401056282E+02
(PID.TID 0000.0001) %MON DYG_sd                       =   1.9554136088118E-11
(PID.TID 0000.0001) %MON DYU_max                      =   8.6857401056280E+02
(PID.TID 0000.0001) %MON DYU_min                      =   8.6857401056280E+02
(PID.TID 0000.0001) %MON DYU_mean                     =   8.6857401056282E+02
(PID.TID 0000.0001) %MON DYU_sd                       =   1.9554136088118E-11
(PID.TID 0000.0001) %MON RA_max                       =   3.6649630573121E+06
(PID.TID 0000.0001) %MON RA_min                       =   3.0341405653118E+06
(PID.TID 0000.0001) %MON RA_mean                      =   3.3503761862578E+06
(PID.TID 0000.0001) %MON RA_sd                        =   1.8256791220069E+05
(PID.TID 0000.0001) %MON RAW_max                      =   3.6649630573121E+06
(PID.TID 0000.0001) %MON RAW_min                      =   3.0341405653118E+06
(PID.TID 0000.0001) %MON RAW_mean                     =   3.3503761862578E+06
(PID.TID 0000.0001) %MON RAW_sd                       =   1.8256791220069E+05
(PID.TID 0000.0001) %MON RAS_max                      =   3.6641789529870E+06
(PID.TID 0000.0001) %MON RAS_min                      =   3.0333440353089E+06
(PID.TID 0000.0001) %MON RAS_mean                     =   3.3495856745848E+06
(PID.TID 0000.0001) %MON RAS_sd                       =   1.8257150815570E+05
(PID.TID 0000.0001) %MON RAZ_max                      =   3.6641789529870E+06
(PID.TID 0000.0001) %MON RAZ_min                      =   3.0333440353089E+06
(PID.TID 0000.0001) %MON RAZ_mean                     =   3.3495856745848E+06
(PID.TID 0000.0001) %MON RAZ_sd                       =   1.8257150815570E+05
(PID.TID 0000.0001) %MON AngleCS_max                  =   1.0000000000000E+00
(PID.TID 0000.0001) %MON AngleCS_min                  =   1.0000000000000E+00
(PID.TID 0000.0001) %MON AngleCS_mean                 =   1.0000000000000E+00
(PID.TID 0000.0001) %MON AngleCS_sd                   =   0.0000000000000E+00
(PID.TID 0000.0001) %MON AngleSN_max                  =   0.0000000000000E+00
(PID.TID 0000.0001) %MON AngleSN_min                  =   0.0000000000000E+00
(PID.TID 0000.0001) %MON AngleSN_mean                 =   0.0000000000000E+00
(PID.TID 0000.0001) %MON AngleSN_sd                   =   0.0000000000000E+00
(PID.TID 0000.0001) GAD_INIT_FIXED: GAD_OlMinSize=  2  0  1
(PID.TID 0000.0001) 
(PID.TID 0000.0001) // ===================================
(PID.TID 0000.0001) // GAD parameters :
(PID.TID 0000.0001) // ===================================
(PID.TID 0000.0001) tempAdvScheme =   /* Temp. Horiz.Advection scheme selector */
(PID.TID 0000.0001)                      30
(PID.TID 0000.0001)     ;
(PID.TID 0000.0001) tempVertAdvScheme =   /* Temp. Vert. Advection scheme selector */
(PID.TID 0000.0001)                      30
(PID.TID 0000.0001)     ;
(PID.TID 0000.0001) tempMultiDimAdvec =   /* use Muti-Dim Advec method for Temp */
(PID.TID 0000.0001)                   T
(PID.TID 0000.0001)     ;
(PID.TID 0000.0001) tempSOM_Advection = /* use 2nd Order Moment Advection for Temp */
(PID.TID 0000.0001)                   F
(PID.TID 0000.0001)     ;
(PID.TID 0000.0001) AdamsBashforthGt = /* apply Adams-Bashforth extrapolation on Gt */
(PID.TID 0000.0001)                   F
(PID.TID 0000.0001)     ;
(PID.TID 0000.0001) AdamsBashforth_T = /* apply Adams-Bashforth extrapolation on Temp */
(PID.TID 0000.0001)                   F
(PID.TID 0000.0001)     ;
(PID.TID 0000.0001) saltAdvScheme =   /* Salt. Horiz.advection scheme selector */
(PID.TID 0000.0001)                      30
(PID.TID 0000.0001)     ;
(PID.TID 0000.0001) saltVertAdvScheme =   /* Salt. Vert. Advection scheme selector */
(PID.TID 0000.0001)                      30
(PID.TID 0000.0001)     ;
(PID.TID 0000.0001) saltMultiDimAdvec =   /* use Muti-Dim Advec method for Salt */
(PID.TID 0000.0001)                   T
(PID.TID 0000.0001)     ;
(PID.TID 0000.0001) saltSOM_Advection = /* use 2nd Order Moment Advection for Salt */
(PID.TID 0000.0001)                   F
(PID.TID 0000.0001)     ;
(PID.TID 0000.0001) AdamsBashforthGs = /* apply Adams-Bashforth extrapolation on Gs */
(PID.TID 0000.0001)                   F
(PID.TID 0000.0001)     ;
(PID.TID 0000.0001) AdamsBashforth_S = /* apply Adams-Bashforth extrapolation on Salt */
(PID.TID 0000.0001)                   F
(PID.TID 0000.0001)     ;
(PID.TID 0000.0001) // ===================================
(PID.TID 0000.0001) ADDED DIAGS TO LIST
(PID.TID 0000.0001) ------------------------------------------------------------
(PID.TID 0000.0001) DIAGNOSTICS_SET_LEVELS: done
(PID.TID 0000.0001)  Total Nb of available Diagnostics: ndiagt=   212
(PID.TID 0000.0001)  write list of available Diagnostics to file: available_diagnostics.log
(PID.TID 0000.0001) SETDIAG: Allocate  1 x  1 Levels for Diagnostic #    23 ETAN
(PID.TID 0000.0001) SETDIAG: Allocate  1 x  1 Levels for Diagnostic #    79 oceTAUX
(PID.TID 0000.0001) SETDIAG: Allocate  1 x  1 Levels for Diagnostic #    80 oceTAUY
(PID.TID 0000.0001) SETDIAG: Allocate  1 x  1 Levels for Diagnostic #    85 oceQnet
(PID.TID 0000.0001) SETDIAG: Allocate  1 x  1 Levels for Diagnostic #    83 oceFWflx
(PID.TID 0000.0001) SETDIAG: Allocate  1 x  1 Levels for Diagnostic #    76 MXLDEPTH
(PID.TID 0000.0001) SETDIAG: Allocate  1 x  1 Levels for Diagnostic #   187 SHIfwFlx
(PID.TID 0000.0001) SETDIAG: Allocate  1 x  1 Levels for Diagnostic #   188 SHIhtFlx
(PID.TID 0000.0001) SETDIAG: Allocate  1 x  1 Levels for Diagnostic #   193 SHIgammT
(PID.TID 0000.0001) SETDIAG: Allocate  1 x  1 Levels for Diagnostic #   194 SHIgammS
(PID.TID 0000.0001) SETDIAG: Allocate  1 x  1 Levels for Diagnostic #   196 SHI_mass
(PID.TID 0000.0001) SETDIAG: Allocate  1 x  1 Levels for Diagnostic #   195 SHIuStar
(PID.TID 0000.0001) SETDIAG: Allocate  1 x  1 Levels for Diagnostic #   197 SHIRshel
(PID.TID 0000.0001) SETDIAG: Allocate  1 x  1 Levels for Diagnostic #   198 SHI_MEff
(PID.TID 0000.0001) SETDIAG: Allocate130 x  1 Levels for Diagnostic #    30 UVEL
(PID.TID 0000.0001) SETDIAG: Allocate130 x  1 Levels for Diagnostic #    31 VVEL
(PID.TID 0000.0001) SETDIAG: Allocate130 x  1 Levels for Diagnostic #    32 WVEL
(PID.TID 0000.0001) SETDIAG: Allocate130 x  1 Levels for Diagnostic #    26 THETA
(PID.TID 0000.0001) SETDIAG: Allocate130 x  1 Levels for Diagnostic #    27 SALT
(PID.TID 0000.0001) SETDIAG: Allocate130 x  1 Levels for Diagnostic #    64 RHOAnoma
(PID.TID 0000.0001) SETDIAG: Allocate130 x  1 Levels for Diagnostic #    78 CONVADJ
(PID.TID 0000.0001) SETDIAG: Allocate  1 x  1 Levels for Diagnostic #   199 SI_Uvel
(PID.TID 0000.0001) SETDIAG: Allocate  1 x  1 Levels for Diagnostic #   200 SI_Vvel
(PID.TID 0000.0001) SETDIAG: Allocate  1 x  1 Levels for Diagnostic #   201 SI_Thick
(PID.TID 0000.0001) SETDIAG: Allocate  1 x  1 Levels for Diagnostic #   204 SI_hmask
(PID.TID 0000.0001) SETDIAG: Allocate  1 x  1 Levels for Diagnostic #   203 SI_float
(PID.TID 0000.0001)   space allocated for all diagnostics:     929 levels
(PID.TID 0000.0001)   set mate pointer for diag #    79  oceTAUX  , Parms: UU      U1 , mate:    80
(PID.TID 0000.0001)   set mate pointer for diag #    80  oceTAUY  , Parms: VV      U1 , mate:    79
(PID.TID 0000.0001)   set mate pointer for diag #    30  UVEL     , Parms: UUR     MR , mate:    31
(PID.TID 0000.0001)   set mate pointer for diag #    31  VVEL     , Parms: VVR     MR , mate:    30
(PID.TID 0000.0001) DIAGNOSTICS_SET_POINTERS: Set levels for Outp.Stream: surfDiag
(PID.TID 0000.0001)  Levels:       1.
(PID.TID 0000.0001) DIAGNOSTICS_SET_POINTERS: Set levels for Outp.Stream: dynDiag
(PID.TID 0000.0001)  Levels:       1.   2.   3.   4.   5.   6.   7.   8.   9.  10.  11.  12.  13.  14.  15.  16.  17.  18.  19.  20.
(PID.TID 0000.0001)  Levels:      21.  22.  23.  24.  25.  26.  27.  28.  29.  30.  31.  32.  33.  34.  35.  36.  37.  38.  39.  40.
(PID.TID 0000.0001)  Levels:      41.  42.  43.  44.  45.  46.  47.  48.  49.  50.  51.  52.  53.  54.  55.  56.  57.  58.  59.  60.
(PID.TID 0000.0001)  Levels:      61.  62.  63.  64.  65.  66.  67.  68.  69.  70.  71.  72.  73.  74.  75.  76.  77.  78.  79.  80.
(PID.TID 0000.0001)  Levels:      81.  82.  83.  84.  85.  86.  87.  88.  89.  90.  91.  92.  93.  94.  95.  96.  97.  98.  99. 100.
(PID.TID 0000.0001)  Levels:     101. 102. 103. 104. 105. 106. 107. 108. 109. 110. 111. 112. 113. 114. 115. 116. 117. 118. 119. 120.
(PID.TID 0000.0001)  Levels:     121. 122. 123. 124. 125. 126. 127. 128. 129. 130.
(PID.TID 0000.0001) DIAGNOSTICS_SET_POINTERS: Set levels for Outp.Stream: streamice
(PID.TID 0000.0001)  Levels:       1.
(PID.TID 0000.0001) DIAGNOSTICS_SET_POINTERS: done
(PID.TID 0000.0001) ------------------------------------------------------------
(PID.TID 0000.0001) DIAGSTATS_SET_REGIONS: define no region
(PID.TID 0000.0001) ------------------------------------------------------------
(PID.TID 0000.0001)   space allocated for all stats-diags:       0 levels
(PID.TID 0000.0001) DIAGSTATS_SET_POINTERS: done
(PID.TID 0000.0001) ------------------------------------------------------------
(PID.TID 0000.0001) %MON fCori_max                    =   0.0000000000000E+00
(PID.TID 0000.0001) %MON fCori_min                    =   0.0000000000000E+00
(PID.TID 0000.0001) %MON fCori_mean                   =   0.0000000000000E+00
(PID.TID 0000.0001) %MON fCori_sd                     =   0.0000000000000E+00
(PID.TID 0000.0001) %MON fCoriG_max                   =   0.0000000000000E+00
(PID.TID 0000.0001) %MON fCoriG_min                   =   0.0000000000000E+00
(PID.TID 0000.0001) %MON fCoriG_mean                  =   0.0000000000000E+00
(PID.TID 0000.0001) %MON fCoriG_sd                    =   0.0000000000000E+00
(PID.TID 0000.0001) %MON fCoriCos_max                 =   0.0000000000000E+00
(PID.TID 0000.0001) %MON fCoriCos_min                 =   0.0000000000000E+00
(PID.TID 0000.0001) %MON fCoriCos_mean                =   0.0000000000000E+00
(PID.TID 0000.0001) %MON fCoriCos_sd                  =   0.0000000000000E+00
(PID.TID 0000.0001) INI_CG2D: CG2D normalisation factor =  2.0597897904647066E-04
(PID.TID 0000.0001) 
(PID.TID 0000.0001) // =======================================================
(PID.TID 0000.0001) // Model configuration
(PID.TID 0000.0001) // =======================================================
(PID.TID 0000.0001) //
(PID.TID 0000.0001) // "Physical" paramters ( PARM01 in namelist )
(PID.TID 0000.0001) //
(PID.TID 0000.0001) buoyancyRelation = /* Type of relation to get Buoyancy */
(PID.TID 0000.0001)               'OCEANIC'
(PID.TID 0000.0001)     ;
(PID.TID 0000.0001) fluidIsAir   =  /* fluid major constituent is Air */
(PID.TID 0000.0001)                   F
(PID.TID 0000.0001)     ;
(PID.TID 0000.0001) fluidIsWater =  /* fluid major constituent is Water */
(PID.TID 0000.0001)                   T
(PID.TID 0000.0001)     ;
(PID.TID 0000.0001) usingPCoords =  /* use p (or p*) vertical coordinate */
(PID.TID 0000.0001)                   F
(PID.TID 0000.0001)     ;
(PID.TID 0000.0001) usingZCoords =  /* use z (or z*) vertical coordinate */
(PID.TID 0000.0001)                   T
(PID.TID 0000.0001)     ;
(PID.TID 0000.0001) tRef =   /* Reference temperature profile ( oC or K ) */
(PID.TID 0000.0001)   130 @ -1.900000000000000E+00              /* K =  1:130 */
(PID.TID 0000.0001)     ;
(PID.TID 0000.0001) sRef =   /* Reference salinity profile ( psu ) */
(PID.TID 0000.0001)   130 @  3.440000000000000E+01              /* K =  1:130 */
(PID.TID 0000.0001)     ;
(PID.TID 0000.0001) useStrainTensionVisc= /* Use StrainTension Form of Viscous Operator */
(PID.TID 0000.0001)                   F
(PID.TID 0000.0001)     ;
(PID.TID 0000.0001) useVariableVisc = /* Use variable horizontal viscosity */
(PID.TID 0000.0001)                   T
(PID.TID 0000.0001)     ;
(PID.TID 0000.0001) useHarmonicVisc = /* Use harmonic horizontal viscosity */
(PID.TID 0000.0001)                   T
(PID.TID 0000.0001)     ;
(PID.TID 0000.0001) useBiharmonicVisc= /* Use biharmonic horiz.  viscosity */
(PID.TID 0000.0001)                   T
(PID.TID 0000.0001)     ;
(PID.TID 0000.0001) useSmag3D = /* Use isotropic 3-D Smagorinsky viscosity */
(PID.TID 0000.0001)                   F
(PID.TID 0000.0001)     ;
(PID.TID 0000.0001) viscAh  =   /* Lateral harmonic viscosity ( m^2/s ) */
(PID.TID 0000.0001)                 0.000000000000000E+00
(PID.TID 0000.0001)     ;
(PID.TID 0000.0001) viscAhMax = /* Maximum lateral harmonic viscosity ( m^2/s ) */
(PID.TID 0000.0001)                 1.000000000000000E+21
(PID.TID 0000.0001)     ;
(PID.TID 0000.0001) viscAhGrid = /* Grid dependent lateral harmonic viscosity ( non-dim. ) */
(PID.TID 0000.0001)                 2.000000000000000E-01
(PID.TID 0000.0001)     ;
(PID.TID 0000.0001) useFullLeith = /* Use Full Form of Leith Viscosity on/off flag*/
(PID.TID 0000.0001)                   F
(PID.TID 0000.0001)     ;
(PID.TID 0000.0001) useAreaViscLength = /* Use area for visc length instead of geom. mean*/
(PID.TID 0000.0001)                   F
(PID.TID 0000.0001)     ;
(PID.TID 0000.0001) viscC2leith = /* Leith harmonic visc. factor (on grad(vort),non-dim.) */
(PID.TID 0000.0001)                 0.000000000000000E+00
(PID.TID 0000.0001)     ;
(PID.TID 0000.0001) viscC2leithD = /* Leith harmonic viscosity factor (on grad(div),non-dim.)*/
(PID.TID 0000.0001)                 0.000000000000000E+00
(PID.TID 0000.0001)     ;
(PID.TID 0000.0001) viscC2smag = /* Smagorinsky harmonic viscosity factor (non-dim.) */
(PID.TID 0000.0001)                 0.000000000000000E+00
(PID.TID 0000.0001)     ;
(PID.TID 0000.0001) viscA4  =   /* Lateral biharmonic viscosity ( m^4/s ) */
(PID.TID 0000.0001)                 0.000000000000000E+00
(PID.TID 0000.0001)     ;
(PID.TID 0000.0001) viscA4Max = /* Maximum biharmonic viscosity ( m^2/s ) */
(PID.TID 0000.0001)                 1.000000000000000E+21
(PID.TID 0000.0001)     ;
(PID.TID 0000.0001) viscA4Grid = /* Grid dependent biharmonic viscosity ( non-dim. ) */
(PID.TID 0000.0001)                 2.000000000000000E-02
(PID.TID 0000.0001)     ;
(PID.TID 0000.0001) viscC4leith = /* Leith biharm viscosity factor (on grad(vort), non-dim.)*/
(PID.TID 0000.0001)                 0.000000000000000E+00
(PID.TID 0000.0001)     ;
(PID.TID 0000.0001) viscC4leithD = /* Leith biharm viscosity factor (on grad(div), non-dim.) */
(PID.TID 0000.0001)                 0.000000000000000E+00
(PID.TID 0000.0001)     ;
(PID.TID 0000.0001) viscC4Smag = /* Smagorinsky biharm viscosity factor (non-dim) */
(PID.TID 0000.0001)                 0.000000000000000E+00
(PID.TID 0000.0001)     ;
(PID.TID 0000.0001) no_slip_sides =  /* Viscous BCs: No-slip sides */
(PID.TID 0000.0001)                   F
(PID.TID 0000.0001)     ;
(PID.TID 0000.0001) sideDragFactor = /* side-drag scaling factor (non-dim) */
(PID.TID 0000.0001)                 2.000000000000000E+00
(PID.TID 0000.0001)     ;
(PID.TID 0000.0001) viscArNr = /* vertical profile of vertical viscosity ( m^2/s )*/
(PID.TID 0000.0001)   130 @  1.000000000000000E-03              /* K =  1:130 */
(PID.TID 0000.0001)     ;
(PID.TID 0000.0001) no_slip_bottom =  /* Viscous BCs: No-slip bottom */
(PID.TID 0000.0001)                   F
(PID.TID 0000.0001)     ;
(PID.TID 0000.0001) bottomVisc_pCell = /* Partial-cell in bottom Visc. BC */
(PID.TID 0000.0001)                   F
(PID.TID 0000.0001)     ;
(PID.TID 0000.0001) bottomDragLinear = /* linear bottom-drag coefficient ( m/s ) */
(PID.TID 0000.0001)                 0.000000000000000E+00
(PID.TID 0000.0001)     ;
(PID.TID 0000.0001) bottomDragQuadratic = /* quadratic bottom-drag coefficient (-) */
(PID.TID 0000.0001)                 2.500000000000000E-03
(PID.TID 0000.0001)     ;
(PID.TID 0000.0001) selectBotDragQuadr = /* select quadratic bottom drag options */
(PID.TID 0000.0001)                       0
(PID.TID 0000.0001)     ;
(PID.TID 0000.0001) diffKhT =   /* Laplacian diffusion of heat laterally ( m^2/s ) */
(PID.TID 0000.0001)                 1.000000000000000E+02
(PID.TID 0000.0001)     ;
(PID.TID 0000.0001) diffK4T =   /* Biharmonic diffusion of heat laterally ( m^4/s ) */
(PID.TID 0000.0001)                 0.000000000000000E+00
(PID.TID 0000.0001)     ;
(PID.TID 0000.0001) diffKhS =   /* Laplacian diffusion of salt laterally ( m^2/s ) */
(PID.TID 0000.0001)                 1.000000000000000E+02
(PID.TID 0000.0001)     ;
(PID.TID 0000.0001) diffK4S =   /* Biharmonic diffusion of salt laterally ( m^4/s ) */
(PID.TID 0000.0001)                 0.000000000000000E+00
(PID.TID 0000.0001)     ;
(PID.TID 0000.0001) diffKrNrT = /* vertical profile of vertical diffusion of Temp ( m^2/s )*/
(PID.TID 0000.0001)   130 @  5.000000000000000E-05              /* K =  1:130 */
(PID.TID 0000.0001)     ;
(PID.TID 0000.0001) diffKrNrS = /* vertical profile of vertical diffusion of Salt ( m^2/s )*/
(PID.TID 0000.0001)   130 @  5.000000000000000E-05              /* K =  1:130 */
(PID.TID 0000.0001)     ;
(PID.TID 0000.0001) diffKrBL79surf = /* Surface diffusion for Bryan and Lewis 79 ( m^2/s ) */
(PID.TID 0000.0001)                 0.000000000000000E+00
(PID.TID 0000.0001)     ;
(PID.TID 0000.0001) diffKrBL79deep = /* Deep diffusion for Bryan and Lewis 1979 ( m^2/s ) */
(PID.TID 0000.0001)                 0.000000000000000E+00
(PID.TID 0000.0001)     ;
(PID.TID 0000.0001) diffKrBL79scl = /* Depth scale for Bryan and Lewis 1979 ( m ) */
(PID.TID 0000.0001)                 2.000000000000000E+02
(PID.TID 0000.0001)     ;
(PID.TID 0000.0001) diffKrBL79Ho = /* Turning depth for Bryan and Lewis 1979 ( m ) */
(PID.TID 0000.0001)                -2.000000000000000E+03
(PID.TID 0000.0001)     ;
(PID.TID 0000.0001) ivdc_kappa = /* Implicit Vertical Diffusivity for Convection ( m^2/s) */
(PID.TID 0000.0001)                 0.000000000000000E+00
(PID.TID 0000.0001)     ;
(PID.TID 0000.0001) hMixCriteria=  /* Criteria for mixed-layer diagnostic */
(PID.TID 0000.0001)                -8.000000000000000E-01
(PID.TID 0000.0001)     ;
(PID.TID 0000.0001) dRhoSmall =  /* Parameter for mixed-layer diagnostic */
(PID.TID 0000.0001)                 1.000000000000000E-06
(PID.TID 0000.0001)     ;
(PID.TID 0000.0001) hMixSmooth=  /* Smoothing parameter for mixed-layer diagnostic */
(PID.TID 0000.0001)                 0.000000000000000E+00
(PID.TID 0000.0001)     ;
(PID.TID 0000.0001) eosType =  /* Type of Equation of State */
(PID.TID 0000.0001)               'JMD95Z'
(PID.TID 0000.0001)     ;
(PID.TID 0000.0001) selectP_inEOS_Zc = /* select pressure to use in EOS (0,1,2,3) */
(PID.TID 0000.0001)                       0
(PID.TID 0000.0001)     0= -g*rhoConst*z ; 1= pRef (from tRef,sRef); 2= Hyd P ; 3= Hyd+NH P
(PID.TID 0000.0001)     ;
(PID.TID 0000.0001) phi0Ref = /* reference (P,geo) potential at origin rF(1) (m^2/s^2) */
(PID.TID 0000.0001)                 0.000000000000000E+00
(PID.TID 0000.0001)     ;
(PID.TID 0000.0001) HeatCapacity_Cp =  /* Specific heat capacity ( J/kg/K ) */
(PID.TID 0000.0001)                 3.974000000000000E+03
(PID.TID 0000.0001)     ;
(PID.TID 0000.0001) celsius2K = /* 0 degree Celsius converted to Kelvin ( K ) */
(PID.TID 0000.0001)                 2.731500000000000E+02
(PID.TID 0000.0001)     ;
(PID.TID 0000.0001) rhoConst  = /* Reference density (Boussinesq)  ( kg/m^3 ) */
(PID.TID 0000.0001)                 1.000000000000000E+03
(PID.TID 0000.0001)     ;
(PID.TID 0000.0001) rhoFacC = /* normalized Reference density @ cell-Center (-) */
(PID.TID 0000.0001)   130 @  1.000000000000000E+00              /* K =  1:130 */
(PID.TID 0000.0001)     ;
(PID.TID 0000.0001) rhoFacF = /* normalized Reference density @ W-Interface (-) */
(PID.TID 0000.0001)   131 @  1.000000000000000E+00              /* K =  1:131 */
(PID.TID 0000.0001)     ;
(PID.TID 0000.0001) rhoConstFresh = /* Fresh-water reference density ( kg/m^3 ) */
(PID.TID 0000.0001)                 1.000000000000000E+03
(PID.TID 0000.0001)     ;
(PID.TID 0000.0001) gravity =   /* Gravitational acceleration ( m/s^2 ) */
(PID.TID 0000.0001)                 9.810000000000001E+00
(PID.TID 0000.0001)     ;
(PID.TID 0000.0001) gBaro =   /* Barotropic gravity ( m/s^2 ) */
(PID.TID 0000.0001)                 9.810000000000001E+00
(PID.TID 0000.0001)     ;
(PID.TID 0000.0001) gravFacC = /* gravity factor (vs surf.) @ cell-Center (-) */
(PID.TID 0000.0001)   130 @  1.000000000000000E+00              /* K =  1:130 */
(PID.TID 0000.0001)     ;
(PID.TID 0000.0001) gravFacF = /* gravity factor (vs surf.) @ W-Interface (-) */
(PID.TID 0000.0001)   131 @  1.000000000000000E+00              /* K =  1:131 */
(PID.TID 0000.0001)     ;
(PID.TID 0000.0001) rotationPeriod =   /* Rotation Period ( s ) */
(PID.TID 0000.0001)                 8.616400000000000E+04
(PID.TID 0000.0001)     ;
(PID.TID 0000.0001) omega =   /* Angular velocity ( rad/s ) */
(PID.TID 0000.0001)                 7.292123516990375E-05
(PID.TID 0000.0001)     ;
(PID.TID 0000.0001) f0 =   /* Reference coriolis parameter ( 1/s ) */
(PID.TID 0000.0001)                 0.000000000000000E+00
(PID.TID 0000.0001)     ;
(PID.TID 0000.0001) beta =   /* Beta ( 1/(m.s) ) */
(PID.TID 0000.0001)                 9.999999999999999E-12
(PID.TID 0000.0001)     ;
(PID.TID 0000.0001) fPrime =   /* Second coriolis parameter ( 1/s ) */
(PID.TID 0000.0001)                 0.000000000000000E+00
(PID.TID 0000.0001)     ;
(PID.TID 0000.0001) rigidLid =   /* Rigid lid on/off flag */
(PID.TID 0000.0001)                   F
(PID.TID 0000.0001)     ;
(PID.TID 0000.0001) implicitFreeSurface =   /* Implicit free surface on/off flag */
(PID.TID 0000.0001)                   T
(PID.TID 0000.0001)     ;
(PID.TID 0000.0001) freeSurfFac =   /* Implicit free surface factor */
(PID.TID 0000.0001)                 1.000000000000000E+00
(PID.TID 0000.0001)     ;
(PID.TID 0000.0001) implicSurfPress =  /* Surface Pressure implicit factor (0-1)*/
(PID.TID 0000.0001)                 1.000000000000000E+00
(PID.TID 0000.0001)     ;
(PID.TID 0000.0001) implicDiv2Dflow =  /* Barot. Flow Div. implicit factor (0-1)*/
(PID.TID 0000.0001)                 1.000000000000000E+00
(PID.TID 0000.0001)     ;
(PID.TID 0000.0001) uniformLin_PhiSurf = /* use uniform Bo_surf on/off flag*/
(PID.TID 0000.0001)                   T
(PID.TID 0000.0001)     ;
(PID.TID 0000.0001) uniformFreeSurfLev = /* free-surface level-index is uniform */
(PID.TID 0000.0001)                   F
(PID.TID 0000.0001)     ;
(PID.TID 0000.0001) hFacMin =   /* minimum partial cell factor (hFac) */
(PID.TID 0000.0001)                 2.000000000000000E-01
(PID.TID 0000.0001)     ;
(PID.TID 0000.0001) hFacMinDr = /* minimum partial cell thickness ( m) */
(PID.TID 0000.0001)                 0.000000000000000E+00
(PID.TID 0000.0001)     ;
(PID.TID 0000.0001) exactConserv =  /* Exact Volume Conservation on/off flag*/
(PID.TID 0000.0001)                   T
(PID.TID 0000.0001)     ;
(PID.TID 0000.0001) linFSConserveTr = /* Tracer correction for Lin Free Surface on/off flag*/
(PID.TID 0000.0001)                   F
(PID.TID 0000.0001)     ;
(PID.TID 0000.0001) nonlinFreeSurf = /* Non-linear Free Surf. options (-1,0,1,2,3)*/
(PID.TID 0000.0001)                       4
(PID.TID 0000.0001)      -1,0= Off ; 1,2,3= On, 2=+rescale gU,gV, 3=+update cg2d solv.
(PID.TID 0000.0001)     ;
(PID.TID 0000.0001) hFacInf =   /* lower threshold for hFac (nonlinFreeSurf only)*/
(PID.TID 0000.0001)                 2.000000000000000E-01
(PID.TID 0000.0001)     ;
(PID.TID 0000.0001) hFacSup =   /* upper threshold for hFac (nonlinFreeSurf only)*/
(PID.TID 0000.0001)                 2.000000000000000E+00
(PID.TID 0000.0001)     ;
(PID.TID 0000.0001) select_rStar = /* r* Vertical coord. options (=0 r coord.; >0 uses r*)*/
(PID.TID 0000.0001)                       0
(PID.TID 0000.0001)     ;
(PID.TID 0000.0001) useRealFreshWaterFlux = /* Real Fresh Water Flux on/off flag*/
(PID.TID 0000.0001)                   T
(PID.TID 0000.0001)     ;
(PID.TID 0000.0001) temp_EvPrRn = /* Temp. of Evap/Prec/R (UNSET=use local T)(oC)*/
(PID.TID 0000.0001)                 1.234567000000000E+05
(PID.TID 0000.0001)     ;
(PID.TID 0000.0001) salt_EvPrRn = /* Salin. of Evap/Prec/R (UNSET=use local S)(psu)*/
(PID.TID 0000.0001)                 0.000000000000000E+00
(PID.TID 0000.0001)     ;
(PID.TID 0000.0001) selectAddFluid = /* option for mass source/sink of fluid (=0: off) */
(PID.TID 0000.0001)                       0
(PID.TID 0000.0001)     ;
(PID.TID 0000.0001) temp_addMass = /* Temp. of addMass array (UNSET=use local T)(oC)*/
(PID.TID 0000.0001)                 1.234567000000000E+05
(PID.TID 0000.0001)     ;
(PID.TID 0000.0001) salt_addMass = /* Salin. of addMass array (UNSET=use local S)(psu)*/
(PID.TID 0000.0001)                 0.000000000000000E+00
(PID.TID 0000.0001)     ;
(PID.TID 0000.0001) use3Dsolver = /* use 3-D pressure solver on/off flag */
(PID.TID 0000.0001)                   F
(PID.TID 0000.0001)     ;
(PID.TID 0000.0001) nonHydrostatic =  /* Non-Hydrostatic on/off flag */
(PID.TID 0000.0001)                   F
(PID.TID 0000.0001)     ;
(PID.TID 0000.0001) nh_Am2 = /* Non-Hydrostatic terms scaling factor */
(PID.TID 0000.0001)                 1.000000000000000E+00
(PID.TID 0000.0001)     ;
(PID.TID 0000.0001) implicitNHPress = /* Non-Hyd Pressure implicit factor (0-1)*/
(PID.TID 0000.0001)                 1.000000000000000E+00
(PID.TID 0000.0001)     ;
(PID.TID 0000.0001) selectNHfreeSurf = /* Non-Hyd (free-)Surface option */
(PID.TID 0000.0001)                       0
(PID.TID 0000.0001)     ;
(PID.TID 0000.0001) quasiHydrostatic = /* Quasi-Hydrostatic on/off flag */
(PID.TID 0000.0001)                   F
(PID.TID 0000.0001)     ;
(PID.TID 0000.0001) calc_wVelocity = /* vertical velocity calculation on/off flag */
(PID.TID 0000.0001)                   T
(PID.TID 0000.0001)     ;
(PID.TID 0000.0001) momStepping =  /* Momentum equation on/off flag */
(PID.TID 0000.0001)                   T
(PID.TID 0000.0001)     ;
(PID.TID 0000.0001) vectorInvariantMomentum= /* Vector-Invariant Momentum on/off */
(PID.TID 0000.0001)                   T
(PID.TID 0000.0001)     ;
(PID.TID 0000.0001) momAdvection =  /* Momentum advection on/off flag */
(PID.TID 0000.0001)                   T
(PID.TID 0000.0001)     ;
(PID.TID 0000.0001) momViscosity =  /* Momentum viscosity on/off flag */
(PID.TID 0000.0001)                   T
(PID.TID 0000.0001)     ;
(PID.TID 0000.0001) momImplVertAdv= /* Momentum implicit vert. advection on/off*/
(PID.TID 0000.0001)                   F
(PID.TID 0000.0001)     ;
(PID.TID 0000.0001) implicitViscosity = /* Implicit viscosity on/off flag */
(PID.TID 0000.0001)                   T
(PID.TID 0000.0001)     ;
(PID.TID 0000.0001) implBottomFriction= /* Implicit bottom friction on/off flag */
(PID.TID 0000.0001)                   F
(PID.TID 0000.0001)     ;
(PID.TID 0000.0001) metricTerms =  /* metric-Terms on/off flag */
(PID.TID 0000.0001)                   T
(PID.TID 0000.0001)     ;
(PID.TID 0000.0001) useNHMTerms = /* Non-Hydrostatic Metric-Terms on/off */
(PID.TID 0000.0001)                   F
(PID.TID 0000.0001)     ;
(PID.TID 0000.0001) selectCoriMap = /* Coriolis Map options (0,1,2,3)*/
(PID.TID 0000.0001)                       0
(PID.TID 0000.0001)     0= f-Plane ; 1= Beta-Plane ; 2= Spherical ; 3= read from file
(PID.TID 0000.0001)     ;
(PID.TID 0000.0001) use3dCoriolis = /* 3-D Coriolis on/off flag */
(PID.TID 0000.0001)                   F
(PID.TID 0000.0001)     ;
(PID.TID 0000.0001) useCoriolis =  /* Coriolis on/off flag */
(PID.TID 0000.0001)                   T
(PID.TID 0000.0001)     ;
(PID.TID 0000.0001) useCDscheme =  /* CD scheme on/off flag */
(PID.TID 0000.0001)                   F
(PID.TID 0000.0001)     ;
(PID.TID 0000.0001) useEnergyConservingCoriolis= /* Flx-Form Coriolis scheme flag */
(PID.TID 0000.0001)                   F
(PID.TID 0000.0001)     ;
(PID.TID 0000.0001) useJamartWetPoints= /* Coriolis WetPoints method flag */
(PID.TID 0000.0001)                   F
(PID.TID 0000.0001)     ;
(PID.TID 0000.0001) useJamartMomAdv= /* V.I Non-linear terms Jamart flag */
(PID.TID 0000.0001)                   F
(PID.TID 0000.0001)     ;
(PID.TID 0000.0001) useAbsVorticity= /* V.I Works with f+zeta in Coriolis */
(PID.TID 0000.0001)                   F
(PID.TID 0000.0001)     ;
(PID.TID 0000.0001) selectVortScheme= /* V.I Scheme selector for Vorticity-Term */
(PID.TID 0000.0001)                       1
(PID.TID 0000.0001)    = 0 : enstrophy (Shallow-Water Eq.) conserving scheme by Sadourny, JAS 75
(PID.TID 0000.0001)    = 1 : same as 0 with modified hFac
(PID.TID 0000.0001)    = 2 : energy conserving scheme (used by Sadourny in JAS 75 paper)
(PID.TID 0000.0001)    = 3 : energy (general) and enstrophy (2D, nonDiv.) conserving scheme
(PID.TID 0000.0001)          from Sadourny (Burridge & Haseler, ECMWF Rep.4, 1977)
(PID.TID 0000.0001)     ;
(PID.TID 0000.0001) upwindVorticity= /* V.I Upwind bias vorticity flag */
(PID.TID 0000.0001)                   F
(PID.TID 0000.0001)     ;
(PID.TID 0000.0001) highOrderVorticity= /* V.I High order vort. advect. flag */
(PID.TID 0000.0001)                   F
(PID.TID 0000.0001)     ;
(PID.TID 0000.0001) upwindShear= /* V.I Upwind vertical Shear advection flag */
(PID.TID 0000.0001)                   F
(PID.TID 0000.0001)     ;
(PID.TID 0000.0001) selectKEscheme= /* V.I Kinetic Energy scheme selector */
(PID.TID 0000.0001)                       0
(PID.TID 0000.0001)     ;
(PID.TID 0000.0001) momForcing =  /* Momentum forcing on/off flag */
(PID.TID 0000.0001)                   T
(PID.TID 0000.0001)     ;
(PID.TID 0000.0001) momPressureForcing =  /* Momentum pressure term on/off flag */
(PID.TID 0000.0001)                   T
(PID.TID 0000.0001)     ;
(PID.TID 0000.0001) implicitIntGravWave= /* Implicit Internal Gravity Wave flag */
(PID.TID 0000.0001)                   F
(PID.TID 0000.0001)     ;
(PID.TID 0000.0001) staggerTimeStep =    /* Stagger time stepping on/off flag */
(PID.TID 0000.0001)                   T
(PID.TID 0000.0001)     ;
(PID.TID 0000.0001) doResetHFactors = /* reset thickness factors @ each time-step */
(PID.TID 0000.0001)                   F
(PID.TID 0000.0001)     ;
(PID.TID 0000.0001) multiDimAdvection =  /* enable/disable Multi-Dim Advection */
(PID.TID 0000.0001)                   T
(PID.TID 0000.0001)     ;
(PID.TID 0000.0001) useMultiDimAdvec =   /* Multi-Dim Advection is/is-not used */
(PID.TID 0000.0001)                   T
(PID.TID 0000.0001)     ;
(PID.TID 0000.0001) implicitDiffusion = /* Implicit Diffusion on/off flag */
(PID.TID 0000.0001)                   T
(PID.TID 0000.0001)     ;
(PID.TID 0000.0001) tempStepping =  /* Temperature equation on/off flag */
(PID.TID 0000.0001)                   T
(PID.TID 0000.0001)     ;
(PID.TID 0000.0001) tempAdvection = /* Temperature advection on/off flag */
(PID.TID 0000.0001)                   T
(PID.TID 0000.0001)     ;
(PID.TID 0000.0001) tempImplVertAdv = /* Temp. implicit vert. advection on/off */
(PID.TID 0000.0001)                   T
(PID.TID 0000.0001)     ;
(PID.TID 0000.0001) tempForcing  =  /* Temperature forcing on/off flag */
(PID.TID 0000.0001)                   T
(PID.TID 0000.0001)     ;
(PID.TID 0000.0001) doThetaClimRelax = /* apply SST relaxation on/off flag */
(PID.TID 0000.0001)                   F
(PID.TID 0000.0001)     ;
(PID.TID 0000.0001) tempIsActiveTr = /* Temp. is a dynamically Active Tracer */
(PID.TID 0000.0001)                   T
(PID.TID 0000.0001)     ;
(PID.TID 0000.0001) saltStepping =  /* Salinity equation on/off flag */
(PID.TID 0000.0001)                   T
(PID.TID 0000.0001)     ;
(PID.TID 0000.0001) saltAdvection = /* Salinity advection on/off flag */
(PID.TID 0000.0001)                   T
(PID.TID 0000.0001)     ;
(PID.TID 0000.0001) saltImplVertAdv = /* Sali. implicit vert. advection on/off */
(PID.TID 0000.0001)                   T
(PID.TID 0000.0001)     ;
(PID.TID 0000.0001) saltForcing  =  /* Salinity forcing on/off flag */
(PID.TID 0000.0001)                   T
(PID.TID 0000.0001)     ;
(PID.TID 0000.0001) doSaltClimRelax = /* apply SSS relaxation on/off flag */
(PID.TID 0000.0001)                   F
(PID.TID 0000.0001)     ;
(PID.TID 0000.0001) saltIsActiveTr = /* Salt  is a dynamically Active Tracer */
(PID.TID 0000.0001)                   T
(PID.TID 0000.0001)     ;
(PID.TID 0000.0001)  readBinaryPrec = /* Precision used for reading binary files */
(PID.TID 0000.0001)                      64
(PID.TID 0000.0001)     ;
(PID.TID 0000.0001) writeBinaryPrec = /* Precision used for writing binary files */
(PID.TID 0000.0001)                      32
(PID.TID 0000.0001)     ;
(PID.TID 0000.0001)  globalFiles = /* write "global" (=not per tile) files */
(PID.TID 0000.0001)                   T
(PID.TID 0000.0001)     ;
(PID.TID 0000.0001)  useSingleCpuIO = /* only master MPI process does I/O */
(PID.TID 0000.0001)                   T
(PID.TID 0000.0001)     ;
(PID.TID 0000.0001)  useSingleCpuInput = /* only master process reads input */
(PID.TID 0000.0001)                   T
(PID.TID 0000.0001)     ;
(PID.TID 0000.0001) /* debLev[*]  : level of debug & auxiliary message printing */
(PID.TID 0000.0001) debLevZero =  0 ; /* level of disabled aux. msg printing */
(PID.TID 0000.0001)    debLevA =  1 ; /* level of minimum  aux. msg printing */
(PID.TID 0000.0001)    debLevB =  2 ; /* level of low aux. print (report read-file opening)*/
(PID.TID 0000.0001)    debLevC =  3 ; /* level of moderate debug prt (most pkgs debug msg) */
(PID.TID 0000.0001)    debLevD =  4 ; /* level of enhanced debug prt (add DEBUG_STATS prt) */
(PID.TID 0000.0001)    debLevE =  5 ; /* level of extensive debug printing */
(PID.TID 0000.0001) debugLevel =  /* select debug printing level */
(PID.TID 0000.0001)                       1
(PID.TID 0000.0001)     ;
(PID.TID 0000.0001) //
(PID.TID 0000.0001) // Elliptic solver(s) paramters ( PARM02 in namelist )
(PID.TID 0000.0001) //
(PID.TID 0000.0001) cg2dMaxIters =   /* Upper limit on 2d con. grad iterations  */
(PID.TID 0000.0001)                     300
(PID.TID 0000.0001)     ;
(PID.TID 0000.0001) cg2dChkResFreq =   /* 2d con. grad convergence test frequency */
(PID.TID 0000.0001)                       1
(PID.TID 0000.0001)     ;
(PID.TID 0000.0001) cg2dUseMinResSol= /* use cg2d last-iter(=0) / min-resid.(=1) solution */
(PID.TID 0000.0001)                       0
(PID.TID 0000.0001)     ;
(PID.TID 0000.0001) cg2dTargetResidual =   /* 2d con. grad target residual  */
(PID.TID 0000.0001)                 9.999999999999999E-12
(PID.TID 0000.0001)     ;
(PID.TID 0000.0001) cg2dTargetResWunit =   /* CG2d target residual [W units] */
(PID.TID 0000.0001)                -1.000000000000000E+00
(PID.TID 0000.0001)     ;
(PID.TID 0000.0001) cg2dPreCondFreq =   /* Freq. for updating cg2d preconditioner */
(PID.TID 0000.0001)                       1
(PID.TID 0000.0001)     ;
(PID.TID 0000.0001) useSRCGSolver =  /* use single reduction CG solver(s) */
(PID.TID 0000.0001)                   F
(PID.TID 0000.0001)     ;
(PID.TID 0000.0001) printResidualFreq = /* Freq. for printing CG residual */
(PID.TID 0000.0001)                       0
(PID.TID 0000.0001)     ;
(PID.TID 0000.0001) //
(PID.TID 0000.0001) // Time stepping paramters ( PARM03 in namelist )
(PID.TID 0000.0001) //
(PID.TID 0000.0001) deltaTMom =   /* Momentum equation timestep ( s ) */
(PID.TID 0000.0001)                 3.000000000000000E+02
(PID.TID 0000.0001)     ;
(PID.TID 0000.0001) deltaTFreeSurf = /* FreeSurface equation timestep ( s ) */
(PID.TID 0000.0001)                 3.000000000000000E+02
(PID.TID 0000.0001)     ;
(PID.TID 0000.0001) dTtracerLev =  /* Tracer equation timestep ( s ) */
(PID.TID 0000.0001)   130 @  3.000000000000000E+02              /* K =  1:130 */
(PID.TID 0000.0001)     ;
(PID.TID 0000.0001) deltaTClock  =   /* Model clock timestep ( s ) */
(PID.TID 0000.0001)                 3.000000000000000E+02
(PID.TID 0000.0001)     ;
(PID.TID 0000.0001) cAdjFreq =   /* Convective adjustment interval ( s ) */
(PID.TID 0000.0001)                 3.000000000000000E+02
(PID.TID 0000.0001)     ;
(PID.TID 0000.0001) momForcingOutAB = /* =1: take Momentum Forcing out of Adams-Bash. stepping */
(PID.TID 0000.0001)                       1
(PID.TID 0000.0001)     ;
(PID.TID 0000.0001) tracForcingOutAB = /* =1: take T,S,pTr Forcing out of Adams-Bash. stepping */
(PID.TID 0000.0001)                       1
(PID.TID 0000.0001)     ;
(PID.TID 0000.0001) momDissip_In_AB = /* put Dissipation Tendency in Adams-Bash. stepping */
(PID.TID 0000.0001)                   T
(PID.TID 0000.0001)     ;
(PID.TID 0000.0001) doAB_onGtGs = /* apply AB on Tendencies (rather than on T,S)*/
(PID.TID 0000.0001)                   T
(PID.TID 0000.0001)     ;
(PID.TID 0000.0001) abEps =   /* Adams-Bashforth-2 stabilizing weight */
(PID.TID 0000.0001)                 1.000000000000000E-01
(PID.TID 0000.0001)     ;
(PID.TID 0000.0001) applyExchUV_early = /* Apply EXCH to U,V earlier in time-step */
(PID.TID 0000.0001)                   F
(PID.TID 0000.0001)     ;
(PID.TID 0000.0001) pickupStrictlyMatch= /* stop if pickup do not strictly match */
(PID.TID 0000.0001)                   T
(PID.TID 0000.0001)     ;
(PID.TID 0000.0001) nIter0   =   /* Run starting timestep number */
(PID.TID 0000.0001)                    8640
(PID.TID 0000.0001)     ;
(PID.TID 0000.0001) nTimeSteps = /* Number of timesteps */
(PID.TID 0000.0001)                      12
(PID.TID 0000.0001)     ;
(PID.TID 0000.0001) nEndIter =   /* Run ending timestep number */
(PID.TID 0000.0001)                    8652
(PID.TID 0000.0001)     ;
(PID.TID 0000.0001) baseTime =   /* Model base time ( s ) */
(PID.TID 0000.0001)                 0.000000000000000E+00
(PID.TID 0000.0001)     ;
(PID.TID 0000.0001) startTime =  /* Run start time ( s ) */
(PID.TID 0000.0001)                 2.592000000000000E+06
(PID.TID 0000.0001)     ;
(PID.TID 0000.0001) endTime  =   /* Integration ending time ( s ) */
(PID.TID 0000.0001)                 2.595600000000000E+06
(PID.TID 0000.0001)     ;
(PID.TID 0000.0001) pChkPtFreq = /* Permanent restart/pickup file interval ( s ) */
(PID.TID 0000.0001)                 2.592000000000000E+06
(PID.TID 0000.0001)     ;
(PID.TID 0000.0001) chkPtFreq  = /* Rolling restart/pickup file interval ( s ) */
(PID.TID 0000.0001)                 2.592000000000000E+06
(PID.TID 0000.0001)     ;
(PID.TID 0000.0001) pickup_write_mdsio =   /* Model IO flag. */
(PID.TID 0000.0001)                   T
(PID.TID 0000.0001)     ;
(PID.TID 0000.0001) pickup_read_mdsio =   /* Model IO flag. */
(PID.TID 0000.0001)                   T
(PID.TID 0000.0001)     ;
(PID.TID 0000.0001) pickup_write_immed =   /* Model IO flag. */
(PID.TID 0000.0001)                   F
(PID.TID 0000.0001)     ;
(PID.TID 0000.0001) writePickupAtEnd =   /* Model IO flag. */
(PID.TID 0000.0001)                   T
(PID.TID 0000.0001)     ;
(PID.TID 0000.0001) dumpFreq =   /* Model state write out interval ( s ). */
(PID.TID 0000.0001)                 1.555200000000000E+07
(PID.TID 0000.0001)     ;
(PID.TID 0000.0001) dumpInitAndLast= /* write out Initial & Last iter. model state */
(PID.TID 0000.0001)                   T
(PID.TID 0000.0001)     ;
(PID.TID 0000.0001) snapshot_mdsio =   /* Model IO flag. */
(PID.TID 0000.0001)                   T
(PID.TID 0000.0001)     ;
(PID.TID 0000.0001) monitorFreq =   /* Monitor output interval ( s ). */
(PID.TID 0000.0001)                 1.555200000000000E+07
(PID.TID 0000.0001)     ;
(PID.TID 0000.0001) monitorSelect = /* select group of variables to monitor */
(PID.TID 0000.0001)                       3
(PID.TID 0000.0001)     ;
(PID.TID 0000.0001) monitor_stdio =   /* Model IO flag. */
(PID.TID 0000.0001)                   T
(PID.TID 0000.0001)     ;
(PID.TID 0000.0001) externForcingPeriod =   /* forcing period (s) */
(PID.TID 0000.0001)                 0.000000000000000E+00
(PID.TID 0000.0001)     ;
(PID.TID 0000.0001) externForcingCycle =   /* period of the cyle (s). */
(PID.TID 0000.0001)                 0.000000000000000E+00
(PID.TID 0000.0001)     ;
(PID.TID 0000.0001) tauThetaClimRelax =   /* relaxation time scale (s) */
(PID.TID 0000.0001)                 0.000000000000000E+00
(PID.TID 0000.0001)     ;
(PID.TID 0000.0001) tauSaltClimRelax =   /* relaxation time scale (s) */
(PID.TID 0000.0001)                 0.000000000000000E+00
(PID.TID 0000.0001)     ;
(PID.TID 0000.0001) latBandClimRelax =   /* max. Lat. where relaxation */
(PID.TID 0000.0001)                 1.800000000000000E+02
(PID.TID 0000.0001)     ;
(PID.TID 0000.0001) //
(PID.TID 0000.0001) // Gridding paramters ( PARM04 in namelist )
(PID.TID 0000.0001) //
(PID.TID 0000.0001) usingCartesianGrid = /* Cartesian coordinates flag ( True/False ) */
(PID.TID 0000.0001)                   F
(PID.TID 0000.0001)     ;
(PID.TID 0000.0001) usingCylindricalGrid = /* Cylindrical coordinates flag ( True/False ) */
(PID.TID 0000.0001)                   F
(PID.TID 0000.0001)     ;
(PID.TID 0000.0001) usingSphericalPolarGrid = /* Spherical coordinates flag ( True/False ) */
(PID.TID 0000.0001)                   T
(PID.TID 0000.0001)     ;
(PID.TID 0000.0001) usingCurvilinearGrid = /* Curvilinear coordinates flag ( True/False ) */
(PID.TID 0000.0001)                   F
(PID.TID 0000.0001)     ;
(PID.TID 0000.0001) selectSigmaCoord = /* Hybrid-Sigma Vert. Coordinate option */
(PID.TID 0000.0001)                       0
(PID.TID 0000.0001)     ;
(PID.TID 0000.0001) Ro_SeaLevel = /* r(1) ( units of r ==  m ) */
(PID.TID 0000.0001)                 0.000000000000000E+00
(PID.TID 0000.0001)     ;
(PID.TID 0000.0001) rSigmaBnd = /* r/sigma transition ( units of r ==  m ) */
(PID.TID 0000.0001)                 1.234567000000000E+05
(PID.TID 0000.0001)     ;
(PID.TID 0000.0001) rkSign =   /* index orientation relative to vertical coordinate */
(PID.TID 0000.0001)                -1.000000000000000E+00
(PID.TID 0000.0001)     ;
(PID.TID 0000.0001) gravitySign = /* gravity orientation relative to vertical coordinate */
(PID.TID 0000.0001)                -1.000000000000000E+00
(PID.TID 0000.0001)     ;
(PID.TID 0000.0001) mass2rUnit = /* convert mass per unit area [kg/m2] to r-units [m] */
(PID.TID 0000.0001)                 1.000000000000000E-03
(PID.TID 0000.0001)     ;
(PID.TID 0000.0001) rUnit2mass = /* convert r-units [m] to mass per unit area [kg/m2] */
(PID.TID 0000.0001)                 1.000000000000000E+03
(PID.TID 0000.0001)     ;
(PID.TID 0000.0001) drC =   /* C spacing ( units of r ) */
(PID.TID 0000.0001)                 5.000000000000000E+00,      /* K =  1 */
(PID.TID 0000.0001)   129 @  1.000000000000000E+01,             /* K =  2:130 */
(PID.TID 0000.0001)                 5.000000000000000E+00       /* K =131 */
(PID.TID 0000.0001)     ;
(PID.TID 0000.0001) drF =   /* W spacing ( units of r ) */
(PID.TID 0000.0001)   130 @  1.000000000000000E+01              /* K =  1:130 */
(PID.TID 0000.0001)     ;
(PID.TID 0000.0001) delX = /* U spacing ( m - cartesian, degrees - spherical ) */
(PID.TID 0000.0001)     3 @  1.250000000000000E-01              /* I =  1:  3 */
(PID.TID 0000.0001)     ;
(PID.TID 0000.0001) delY = /* V spacing ( m - cartesian, degrees - spherical ) */
(PID.TID 0000.0001)   400 @  7.812500000000000E-03              /* J =  1:400 */
(PID.TID 0000.0001)     ;
(PID.TID 0000.0001) xgOrigin = /* X-axis origin of West  edge (cartesian: m, lat-lon: deg) */
(PID.TID 0000.0001)                -1.055000000000000E+02
(PID.TID 0000.0001)     ;
(PID.TID 0000.0001) ygOrigin = /* Y-axis origin of South edge (cartesian: m, lat-lon: deg) */
(PID.TID 0000.0001)                -7.544570000000000E+01
(PID.TID 0000.0001)     ;
(PID.TID 0000.0001) rSphere =  /* Radius ( ignored - cartesian, m - spherical ) */
(PID.TID 0000.0001)                 6.370000000000000E+06
(PID.TID 0000.0001)     ;
(PID.TID 0000.0001) deepAtmosphere = /* Deep/Shallow Atmosphere flag (True/False) */
(PID.TID 0000.0001)                   F
(PID.TID 0000.0001)     ;
(PID.TID 0000.0001) xC =  /* xC(:,1,:,1) : P-point X coord ( deg. or m if cartesian) */
(PID.TID 0000.0001)                -1.054375000000000E+02,      /* I =  1 */
[...]
(PID.TID 0000.0001)  nRecords = 139 ; filePrec =  64 ; fileIter =      8640
(PID.TID 0000.0001)     nDims =   2 , dims:
(PID.TID 0000.0001)    1:   3   1   3
(PID.TID 0000.0001)    2: 400   1 400
(PID.TID 0000.0001)     nFlds =  10 , nFl3D =   1 , fields:
(PID.TID 0000.0001)  >visc3d  < >SI_area < >SI_hmask< >SI_uvel < >SI_vvel < >SI_thick< >SI_betaF< >SI_visc < >SI_taubx< >SI_tauby<
(PID.TID 0000.0001) missingVal=  1.00000000000000E+00 ; nTimRec =   1 , timeList:
(PID.TID 0000.0001)   2.592000000000E+06
(PID.TID 0000.0001) READ_MFLDS_3D_RL: read field: "visc3d  ", #   1 in fldList, rec=   1
(PID.TID 0000.0001) READ_MFLDS_3D_RL: read field: "SI_area ", #   2 in fldList, rec= 131
(PID.TID 0000.0001) READ_MFLDS_LEV_RS: read field: "SI_hmask", #   3 in fldList, rec= 132
(PID.TID 0000.0001) READ_MFLDS_3D_RL: read field: "SI_uvel ", #   4 in fldList, rec= 133
(PID.TID 0000.0001) READ_MFLDS_3D_RL: read field: "SI_vvel ", #   5 in fldList, rec= 134
(PID.TID 0000.0001) READ_MFLDS_3D_RL: read field: "SI_thick", #   6 in fldList, rec= 135
(PID.TID 0000.0001) READ_MFLDS_3D_RL: read field: "SI_betaF", #   7 in fldList, rec= 136
(PID.TID 0000.0001) READ_MFLDS_3D_RL: read field: "SI_visc ", #   8 in fldList, rec= 137
(PID.TID 0000.0001) READ_MFLDS_3D_RL: read field: "SI_taubx", #   9 in fldList, rec= 138
(PID.TID 0000.0001) READ_MFLDS_3D_RL: read field: "SI_tauby", #  10 in fldList, rec= 139
(PID.TID 0000.0001) READ_MFLDS_CHECK: - normal end ; reset MFLDS file-name: pickup_streamice.0000008640
(PID.TID 0000.0001)  OBCS_FIELDS_LOAD: Reading initial data:      8640  2.592000000000E+06
 SURF_ADJUSTMENT: Iter=        -1 Nb_pts,Vol=       171  4.38127265E+06
 SURF_ADJUSTMENT: Iter=      8640 Nb_pts,Vol=       171  4.38127265E+06
(PID.TID 0000.0001) // =======================================================
(PID.TID 0000.0001) // Model current state
(PID.TID 0000.0001) // =======================================================
(PID.TID 0000.0001) 
(PID.TID 0000.0001) streamice solo_time_step: nIter0000008640 0.82E-01seconds
(PID.TID 0000.0001) CONJ GRAD INIT RESID LOCAL, 11 0.2642629E+24
(PID.TID 0000.0001) CONJ GRAD INIT RESID,  0.5140651E+12
(PID.TID 0000.0001) BEGINNING MAIN CG LOOP
 GOT HERE CG ITERATIONS          299
(PID.TID 0000.0001) streamice linear solve number    1  299 iterations
(PID.TID 0000.0001) STREAMICE_FP_ERROR =  2.38944649963400E-01
(PID.TID 0000.0001) VELOCITY SOLVE NOT CONVERGED IN     1 iterations
 time_step_loc    9.5129375951293768E-006
(PID.TID 0000.0001) END STREAMICE_ADVECT_THICKNESS
(PID.TID 0000.0001) SOLVE_FOR_PRESSURE: putPmEinXvector =    F
 cg2d: Sum(rhs),rhsMax =   2.94686265800047E-01  4.73597563275513E+01
 SURF_ADJUSTMENT: Iter=      8641 Nb_pts,Vol=       171  4.38127265E+06
(PID.TID 0000.0001) CALLING FILL DIAGNOSTICS
(PID.TID 0000.0001) streamice solo_time_step: nIter0000008641 0.82E-01seconds
 time_step_loc    9.5129375951293768E-006
(PID.TID 0000.0001) END STREAMICE_ADVECT_THICKNESS
 cg2d: Sum(rhs),rhsMax =   2.94678567617050E-01  4.73598119950701E+01
 SURF_ADJUSTMENT: Iter=      8642 Nb_pts,Vol=       171  4.38127265E+06
(PID.TID 0000.0001) CALLING FILL DIAGNOSTICS
(PID.TID 0000.0001) streamice solo_time_step: nIter0000008642 0.82E-01seconds
 time_step_loc    9.5129375951293768E-006
(PID.TID 0000.0001) END STREAMICE_ADVECT_THICKNESS
 cg2d: Sum(rhs),rhsMax =   2.94670869381899E-01  4.73598676886768E+01
 SURF_ADJUSTMENT: Iter=      8643 Nb_pts,Vol=       171  4.38127265E+06
(PID.TID 0000.0001) CALLING FILL DIAGNOSTICS
(PID.TID 0000.0001) streamice solo_time_step: nIter0000008643 0.82E-01seconds
 time_step_loc    9.5129375951293768E-006
(PID.TID 0000.0001) END STREAMICE_ADVECT_THICKNESS
 cg2d: Sum(rhs),rhsMax =   2.94663171222269E-01  4.73599234067788E+01
 SURF_ADJUSTMENT: Iter=      8644 Nb_pts,Vol=       171  4.38127265E+06
(PID.TID 0000.0001) CALLING FILL DIAGNOSTICS
(PID.TID 0000.0001) streamice solo_time_step: nIter0000008644 0.82E-01seconds
 time_step_loc    9.5129375951293768E-006
(PID.TID 0000.0001) END STREAMICE_ADVECT_THICKNESS
 cg2d: Sum(rhs),rhsMax =   2.94655473310201E-01  4.73599791230100E+01
 SURF_ADJUSTMENT: Iter=      8645 Nb_pts,Vol=       171  4.38127265E+06
(PID.TID 0000.0001) CALLING FILL DIAGNOSTICS
(PID.TID 0000.0001) streamice solo_time_step: nIter0000008645 0.82E-01seconds
 time_step_loc    9.5129375951293768E-006
(PID.TID 0000.0001) END STREAMICE_ADVECT_THICKNESS
 cg2d: Sum(rhs),rhsMax =   2.94647775762762E-01  4.73600348185222E+01
 SURF_ADJUSTMENT: Iter=      8646 Nb_pts,Vol=       171  4.38127265E+06
(PID.TID 0000.0001) CALLING FILL DIAGNOSTICS
(PID.TID 0000.0001) INI_CG2D: CG2D normalisation factor =  2.0597897904647066E-04
(PID.TID 0000.0001) 
 SURF_ADJUSTMENT: Iter=      8646 Nb_pts,Vol=       171  4.38127265E+06
 SURF_ADJUSTMENT: Iter=      8646 Nb_pts,Vol=       171  4.38127265E+06
(PID.TID 0000.0001) streamice solo_time_step: nIter0000008646 0.82E-01seconds
 time_step_loc    9.5129375951293768E-006
(PID.TID 0000.0001) END STREAMICE_ADVECT_THICKNESS
 cg2d: Sum(rhs),rhsMax =   3.89013035181156E-01  4.73600905074070E+01
 SURF_ADJUSTMENT: Iter=      8647 Nb_pts,Vol=       171  4.38127265E+06
(PID.TID 0000.0001) CALLING FILL DIAGNOSTICS
(PID.TID 0000.0001) streamice solo_time_step: nIter0000008647 0.82E-01seconds
 time_step_loc    9.5129375951293768E-006
(PID.TID 0000.0001) END STREAMICE_ADVECT_THICKNESS
 cg2d: Sum(rhs),rhsMax =   3.89005136331753E-01  4.73601485585220E+01
 SURF_ADJUSTMENT: Iter=      8648 Nb_pts,Vol=       171  4.38127265E+06
(PID.TID 0000.0001) CALLING FILL DIAGNOSTICS
(PID.TID 0000.0001) streamice solo_time_step: nIter0000008648 0.82E-01seconds
 time_step_loc    9.5129375951293768E-006
(PID.TID 0000.0001) END STREAMICE_ADVECT_THICKNESS
 cg2d: Sum(rhs),rhsMax =   3.88997228470070E-01  4.73602048568054E+01
 SURF_ADJUSTMENT: Iter=      8649 Nb_pts,Vol=       171  4.38127265E+06
(PID.TID 0000.0001) CALLING FILL DIAGNOSTICS
(PID.TID 0000.0001) streamice solo_time_step: nIter0000008649 0.82E-01seconds
 time_step_loc    9.5129375951293768E-006
(PID.TID 0000.0001) END STREAMICE_ADVECT_THICKNESS
 cg2d: Sum(rhs),rhsMax =   3.88989294859009E-01  4.73602609356568E+01
 SURF_ADJUSTMENT: Iter=      8650 Nb_pts,Vol=       171  4.38127265E+06
(PID.TID 0000.0001) CALLING FILL DIAGNOSTICS
(PID.TID 0000.0001) streamice solo_time_step: nIter0000008650 0.82E-01seconds
 time_step_loc    9.5129375951293768E-006
(PID.TID 0000.0001) END STREAMICE_ADVECT_THICKNESS
 cg2d: Sum(rhs),rhsMax =   3.88981341256258E-01  4.73603167676106E+01
 SURF_ADJUSTMENT: Iter=      8651 Nb_pts,Vol=       171  4.38127265E+06
(PID.TID 0000.0001) CALLING FILL DIAGNOSTICS
(PID.TID 0000.0001) streamice solo_time_step: nIter0000008651 0.82E-01seconds
 time_step_loc    9.5129375951293768E-006
(PID.TID 0000.0001) END STREAMICE_ADVECT_THICKNESS
 cg2d: Sum(rhs),rhsMax =   3.88973368706139E-01  4.73603724968132E+01
 SURF_ADJUSTMENT: Iter=      8652 Nb_pts,Vol=       171  4.38127265E+06
(PID.TID 0000.0001) CALLING FILL DIAGNOSTICS
(PID.TID 0000.0001) %CHECKPOINT      8652 ckptA
(PID.TID 0000.0001)   Seconds in section "ALL                    [THE_MODEL_MAIN]":
(PID.TID 0000.0001)           User time:    12.17999935150146
(PID.TID 0000.0001)         System time:   0.3499999847263098
(PID.TID 0000.0001)     Wall clock time:    15.90199184417725
(PID.TID 0000.0001)          No. starts:            1
(PID.TID 0000.0001)           No. stops:            1
(PID.TID 0000.0001)   Seconds in section "INITIALISE_FIXED       [THE_MODEL_MAIN]":
(PID.TID 0000.0001)           User time:   8.9999996125698090E-002
(PID.TID 0000.0001)         System time:   3.9999997243285179E-002
(PID.TID 0000.0001)     Wall clock time:   0.7781720161437988
(PID.TID 0000.0001)          No. starts:            1
(PID.TID 0000.0001)           No. stops:            1
(PID.TID 0000.0001)   Seconds in section "THE_MAIN_LOOP          [THE_MODEL_MAIN]":
(PID.TID 0000.0001)           User time:    12.08999935537577
(PID.TID 0000.0001)         System time:   0.3099999874830246
(PID.TID 0000.0001)     Wall clock time:    15.12376093864441
(PID.TID 0000.0001)          No. starts:            1
(PID.TID 0000.0001)           No. stops:            1
(PID.TID 0000.0001)   Seconds in section "INITIALISE_VARIA    [THE_MAIN_LOOP]":
(PID.TID 0000.0001)           User time:   0.1600000038743019
(PID.TID 0000.0001)         System time:   7.0000000298023224E-002
(PID.TID 0000.0001)     Wall clock time:   0.5427169799804688
(PID.TID 0000.0001)          No. starts:            1
(PID.TID 0000.0001)           No. stops:            1
(PID.TID 0000.0001)   Seconds in section "MAIN LOOP           [THE_MAIN_LOOP]":
(PID.TID 0000.0001)           User time:    11.92999935150146
(PID.TID 0000.0001)         System time:   0.2399999871850014
(PID.TID 0000.0001)     Wall clock time:    14.58099293708801
(PID.TID 0000.0001)          No. starts:            1
(PID.TID 0000.0001)           No. stops:            1
(PID.TID 0000.0001)   Seconds in section "MAIN_DO_LOOP        [THE_MAIN_LOOP]":
(PID.TID 0000.0001)           User time:    11.92999935150146
(PID.TID 0000.0001)         System time:   0.2399999871850014
(PID.TID 0000.0001)     Wall clock time:    14.58076977729797
(PID.TID 0000.0001)          No. starts:           12
(PID.TID 0000.0001)           No. stops:           12
(PID.TID 0000.0001)   Seconds in section "FORWARD_STEP        [MAIN_DO_LOOP]":
(PID.TID 0000.0001)           User time:    11.92999935150146
(PID.TID 0000.0001)         System time:   0.2399999871850014
(PID.TID 0000.0001)     Wall clock time:    14.58035373687744
(PID.TID 0000.0001)          No. starts:           12
(PID.TID 0000.0001)           No. stops:           12
(PID.TID 0000.0001)   Seconds in section "SHELFICE_REMESHING     [FORWARD_STEP]":
(PID.TID 0000.0001)           User time:   0.1199998855590820
(PID.TID 0000.0001)         System time:    0.000000000000000
(PID.TID 0000.0001)     Wall clock time:   0.1335549354553223
(PID.TID 0000.0001)          No. starts:           12
(PID.TID 0000.0001)           No. stops:           12
(PID.TID 0000.0001)   Seconds in section "DO_STATEVARS_DIAGS  [FORWARD_STEP]":
(PID.TID 0000.0001)           User time:   0.1200015544891357
(PID.TID 0000.0001)         System time:    0.000000000000000
(PID.TID 0000.0001)     Wall clock time:   0.1155388355255127
(PID.TID 0000.0001)          No. starts:           36
(PID.TID 0000.0001)           No. stops:           36
(PID.TID 0000.0001)   Seconds in section "LOAD_FIELDS_DRIVER  [FORWARD_STEP]":
(PID.TID 0000.0001)           User time:    0.000000000000000
(PID.TID 0000.0001)         System time:    0.000000000000000
(PID.TID 0000.0001)     Wall clock time:   6.3419342041015625E-004
(PID.TID 0000.0001)          No. starts:           12
(PID.TID 0000.0001)           No. stops:           12
(PID.TID 0000.0001)   Seconds in section "EXTERNAL_FLDS_LOAD [LOAD_FLDS_DRIVER]":
(PID.TID 0000.0001)           User time:    0.000000000000000
(PID.TID 0000.0001)         System time:    0.000000000000000
(PID.TID 0000.0001)     Wall clock time:   2.1839141845703125E-004
(PID.TID 0000.0001)          No. starts:           12
(PID.TID 0000.0001)           No. stops:           12
(PID.TID 0000.0001)   Seconds in section "DO_ATMOSPHERIC_PHYS [FORWARD_STEP]":
(PID.TID 0000.0001)           User time:    0.000000000000000
(PID.TID 0000.0001)         System time:    0.000000000000000
(PID.TID 0000.0001)     Wall clock time:   2.1839141845703125E-004
(PID.TID 0000.0001)          No. starts:           12
(PID.TID 0000.0001)           No. stops:           12
(PID.TID 0000.0001)   Seconds in section "DO_OCEANIC_PHYS     [FORWARD_STEP]":
(PID.TID 0000.0001)           User time:    1.760002136230469
(PID.TID 0000.0001)         System time:   9.9999979138374329E-003
(PID.TID 0000.0001)     Wall clock time:    1.754126071929932
(PID.TID 0000.0001)          No. starts:           12
(PID.TID 0000.0001)           No. stops:           12
(PID.TID 0000.0001)   Seconds in section "SHELFICE_THERMODYNAMICS [DO_OCEANIC_PHYS]":
(PID.TID 0000.0001)           User time:   1.0000228881835938E-002
(PID.TID 0000.0001)         System time:    0.000000000000000
(PID.TID 0000.0001)     Wall clock time:   1.2907505035400391E-002
(PID.TID 0000.0001)          No. starts:           12
(PID.TID 0000.0001)           No. stops:           12
(PID.TID 0000.0001)   Seconds in section "STREAMICE_TIMESTEP [FORWARD_STEP]":
(PID.TID 0000.0001)           User time:   0.2099995017051697
(PID.TID 0000.0001)         System time:    0.000000000000000
(PID.TID 0000.0001)     Wall clock time:   0.1965179443359375
(PID.TID 0000.0001)          No. starts:           12
(PID.TID 0000.0001)           No. stops:           12
(PID.TID 0000.0001)   Seconds in section "STREAMICE_VEL_SOLVE":
(PID.TID 0000.0001)           User time:   0.1899999976158142
(PID.TID 0000.0001)         System time:    0.000000000000000
(PID.TID 0000.0001)     Wall clock time:   0.1854038238525391
(PID.TID 0000.0001)          No. starts:            1
(PID.TID 0000.0001)           No. stops:            1
(PID.TID 0000.0001)   Seconds in section "STREAMICE_CG_SOLVE":
(PID.TID 0000.0001)           User time:   0.1200000047683716
(PID.TID 0000.0001)         System time:    0.000000000000000
(PID.TID 0000.0001)     Wall clock time:   0.1224389076232910
(PID.TID 0000.0001)          No. starts:            1
(PID.TID 0000.0001)           No. stops:            1
(PID.TID 0000.0001)   Seconds in section "STREAMICE_ADVECT_THICKNESS":
(PID.TID 0000.0001)           User time:   1.0000228881835938E-002
(PID.TID 0000.0001)         System time:    0.000000000000000
(PID.TID 0000.0001)     Wall clock time:   5.6602954864501953E-003
(PID.TID 0000.0001)          No. starts:           12
(PID.TID 0000.0001)           No. stops:           12
(PID.TID 0000.0001)   Seconds in section "DYNAMICS            [FORWARD_STEP]":
(PID.TID 0000.0001)           User time:    3.629998624324799
(PID.TID 0000.0001)         System time:   1.0000005364418030E-002
(PID.TID 0000.0001)     Wall clock time:    3.671493768692017
(PID.TID 0000.0001)          No. starts:           12
(PID.TID 0000.0001)           No. stops:           12
(PID.TID 0000.0001)   Seconds in section "UPDATE_SURF_DR      [FORWARD_STEP]":
(PID.TID 0000.0001)           User time:   9.9997520446777344E-003
(PID.TID 0000.0001)         System time:    0.000000000000000
(PID.TID 0000.0001)     Wall clock time:   2.1777153015136719E-003
(PID.TID 0000.0001)          No. starts:           12
(PID.TID 0000.0001)           No. stops:           12
(PID.TID 0000.0001)   Seconds in section "UPDATE_CG2D         [FORWARD_STEP]":
(PID.TID 0000.0001)           User time:   2.9999971389770508E-002
(PID.TID 0000.0001)         System time:    0.000000000000000
(PID.TID 0000.0001)     Wall clock time:   3.5472631454467773E-002
(PID.TID 0000.0001)          No. starts:           12
(PID.TID 0000.0001)           No. stops:           12
(PID.TID 0000.0001)   Seconds in section "SOLVE_FOR_PRESSURE  [FORWARD_STEP]":
(PID.TID 0000.0001)           User time:   0.1700015068054199
(PID.TID 0000.0001)         System time:    0.000000000000000
(PID.TID 0000.0001)     Wall clock time:   0.1704456806182861
(PID.TID 0000.0001)          No. starts:           12
(PID.TID 0000.0001)           No. stops:           12
(PID.TID 0000.0001)   Seconds in section "MOM_CORRECTION_STEP [FORWARD_STEP]":
(PID.TID 0000.0001)           User time:   6.0000181198120117E-002
(PID.TID 0000.0001)         System time:    0.000000000000000
(PID.TID 0000.0001)     Wall clock time:   6.5869092941284180E-002
(PID.TID 0000.0001)          No. starts:           12
(PID.TID 0000.0001)           No. stops:           12
(PID.TID 0000.0001)   Seconds in section "INTEGR_CONTINUITY   [FORWARD_STEP]":
(PID.TID 0000.0001)           User time:   0.1799986958503723
(PID.TID 0000.0001)         System time:    0.000000000000000
(PID.TID 0000.0001)     Wall clock time:   0.1822013854980469
(PID.TID 0000.0001)          No. starts:           12
(PID.TID 0000.0001)           No. stops:           12
(PID.TID 0000.0001)   Seconds in section "CALC_SURF_DR      [FORWARD_STEP]":
(PID.TID 0000.0001)           User time:    0.000000000000000
(PID.TID 0000.0001)         System time:    0.000000000000000
(PID.TID 0000.0001)     Wall clock time:   7.4183940887451172E-003
(PID.TID 0000.0001)          No. starts:           12
(PID.TID 0000.0001)           No. stops:           12
(PID.TID 0000.0001)   Seconds in section "BLOCKING_EXCHANGES  [FORWARD_STEP]":
(PID.TID 0000.0001)           User time:   0.2299994230270386
(PID.TID 0000.0001)         System time:    0.000000000000000
(PID.TID 0000.0001)     Wall clock time:   0.2269165515899658
(PID.TID 0000.0001)          No. starts:           24
(PID.TID 0000.0001)           No. stops:           24
(PID.TID 0000.0001)   Seconds in section "THERMODYNAMICS      [FORWARD_STEP]":
(PID.TID 0000.0001)           User time:    3.529999434947968
(PID.TID 0000.0001)         System time:   4.0000006556510925E-002
(PID.TID 0000.0001)     Wall clock time:    4.403698921203613
(PID.TID 0000.0001)          No. starts:           12
(PID.TID 0000.0001)           No. stops:           12
(PID.TID 0000.0001)   Seconds in section "TRC_CORRECTION_STEP [FORWARD_STEP]":
(PID.TID 0000.0001)           User time:    1.160001277923584
(PID.TID 0000.0001)         System time:    0.000000000000000
(PID.TID 0000.0001)     Wall clock time:    1.386758327484131
(PID.TID 0000.0001)          No. starts:           12
(PID.TID 0000.0001)           No. stops:           12
(PID.TID 0000.0001)   Seconds in section "MONITOR             [FORWARD_STEP]":
(PID.TID 0000.0001)           User time:    0.000000000000000
(PID.TID 0000.0001)         System time:    0.000000000000000
(PID.TID 0000.0001)     Wall clock time:   2.2315979003906250E-004
(PID.TID 0000.0001)          No. starts:           12
(PID.TID 0000.0001)           No. stops:           12
(PID.TID 0000.0001)   Seconds in section "DO_THE_MODEL_IO     [FORWARD_STEP]":
(PID.TID 0000.0001)           User time:   0.6699974536895752
(PID.TID 0000.0001)         System time:   0.1599999964237213
(PID.TID 0000.0001)     Wall clock time:    2.071933746337891
(PID.TID 0000.0001)          No. starts:           12
(PID.TID 0000.0001)           No. stops:           12
(PID.TID 0000.0001)   Seconds in section "DO_WRITE_PICKUP     [FORWARD_STEP]":
(PID.TID 0000.0001)           User time:   3.9999961853027344E-002
(PID.TID 0000.0001)         System time:   1.9999980926513672E-002
(PID.TID 0000.0001)     Wall clock time:   0.1502420902252197
(PID.TID 0000.0001)          No. starts:           12
(PID.TID 0000.0001)           No. stops:           12
(PID.TID 0000.0001) // ======================================================
(PID.TID 0000.0001) // Tile <-> Tile communication statistics
(PID.TID 0000.0001) // ======================================================
(PID.TID 0000.0001) // o Tile number: 000001
(PID.TID 0000.0001) //         No. X exchanges =              0
(PID.TID 0000.0001) //            Max. X spins =              0
(PID.TID 0000.0001) //            Min. X spins =     1000000000
(PID.TID 0000.0001) //          Total. X spins =              0
(PID.TID 0000.0001) //            Avg. X spins =       0.00E+00
(PID.TID 0000.0001) //         No. Y exchanges =              0
(PID.TID 0000.0001) //            Max. Y spins =              0
(PID.TID 0000.0001) //            Min. Y spins =     1000000000
(PID.TID 0000.0001) //          Total. Y spins =              0
(PID.TID 0000.0001) //            Avg. Y spins =       0.00E+00
(PID.TID 0000.0001) // o Thread number: 000001
(PID.TID 0000.0001) //            No. barriers =          42104
(PID.TID 0000.0001) //      Max. barrier spins =              1
(PID.TID 0000.0001) //      Min. barrier spins =              1
(PID.TID 0000.0001) //     Total barrier spins =          42104
(PID.TID 0000.0001) //      Avg. barrier spins =       1.00E+00
PROGRAM MAIN: Execution ended Normally
