(PID.TID 0000.0001) 
(PID.TID 0000.0001) // ======================================================
(PID.TID 0000.0001) //                      MITgcm UV
(PID.TID 0000.0001) //                      =========
(PID.TID 0000.0001) // ======================================================
(PID.TID 0000.0001) // execution environment starting up...
(PID.TID 0000.0001) 
(PID.TID 0000.0001) // MITgcmUV version:  checkpoint65t
(PID.TID 0000.0001) // Build user:        jamrda26
(PID.TID 0000.0001) // Build host:        bslscihub-ws2
(PID.TID 0000.0001) // Build date:        Tue Mar 15 15:35:27 GMT 2016
(PID.TID 0000.0001) 
(PID.TID 0000.0001) // =======================================================
(PID.TID 0000.0001) // Execution Environment parameter file "eedata"
(PID.TID 0000.0001) // =======================================================
(PID.TID 0000.0001) ># Example "eedata" file
(PID.TID 0000.0001) ># Lines beginning "#" are comments
(PID.TID 0000.0001) ># nTx - No. threads per process in X
(PID.TID 0000.0001) ># nTy - No. threads per process in Y
(PID.TID 0000.0001) > &EEPARMS
(PID.TID 0000.0001) > &
(PID.TID 0000.0001) ># Note: Some systems use & as the
(PID.TID 0000.0001) ># namelist terminator. Other systems
(PID.TID 0000.0001) ># use a / character (as shown here).
(PID.TID 0000.0001) 
(PID.TID 0000.0001) // =======================================================
(PID.TID 0000.0001) // Computational Grid Specification ( see files "SIZE.h" )
(PID.TID 0000.0001) //                                  ( and "eedata"       )
(PID.TID 0000.0001) // =======================================================
(PID.TID 0000.0001)      nPx =    1 ; /* No. processes in X */
(PID.TID 0000.0001)      nPy =    1 ; /* No. processes in Y */
(PID.TID 0000.0001)      nSx =    1 ; /* No. tiles in X per process */
(PID.TID 0000.0001)      nSy =    1 ; /* No. tiles in Y per process */
(PID.TID 0000.0001)      sNx =    3 ; /* Tile size in X */
(PID.TID 0000.0001)      sNy =  400 ; /* Tile size in Y */
(PID.TID 0000.0001)      OLx =    3 ; /* Tile overlap distance in X */
(PID.TID 0000.0001)      OLy =    3 ; /* Tile overlap distance in Y */
(PID.TID 0000.0001)      nTx =    1 ; /* No. threads in X per process */
(PID.TID 0000.0001)      nTy =    1 ; /* No. threads in Y per process */
(PID.TID 0000.0001)       Nr =  130 ; /* No. levels in the vertical   */
(PID.TID 0000.0001)       Nx =    3 ; /* Total domain size in X ( = nPx*nSx*sNx ) */
(PID.TID 0000.0001)       Ny =  400 ; /* Total domain size in Y ( = nPy*nSy*sNy ) */
(PID.TID 0000.0001)   nTiles =    1 ; /* Total no. tiles per process ( = nSx*nSy ) */
(PID.TID 0000.0001)   nProcs =    1 ; /* Total no. processes ( = nPx*nPy ) */
(PID.TID 0000.0001) nThreads =    1 ; /* Total no. threads per process ( = nTx*nTy ) */
(PID.TID 0000.0001) usingMPI =    T ; /* Flag used to control whether MPI is in use */
(PID.TID 0000.0001)                   /*  note: To execute a program with MPI calls */
(PID.TID 0000.0001)                   /*  it must be launched appropriately e.g     */
(PID.TID 0000.0001)                   /*  "mpirun -np 64 ......"                    */
(PID.TID 0000.0001) useCoupler=    F ;/* Flag used to control communications with   */
(PID.TID 0000.0001)                   /*  other model components, through a coupler */
(PID.TID 0000.0001) debugMode =    F ; /* print debug msg. (sequence of S/R calls)  */
(PID.TID 0000.0001) printMapIncludesZeros=    F ; /* print zeros in Std.Output maps */
(PID.TID 0000.0001) maxLengthPrt1D=   65 /* maxLength of 1D array printed to StdOut */
(PID.TID 0000.0001) 
(PID.TID 0000.0001) ======= Starting MPI parallel Run =========
(PID.TID 0000.0001)  My Processor Name (len:  7 ) = node015
(PID.TID 0000.0001)  Located at (  0,  0) on processor grid (0:  0,0:  0)
(PID.TID 0000.0001)  Origin at  (     1,     1) on global grid (1:     3,1:   400)
(PID.TID 0000.0001)  North neighbor = processor 0000
(PID.TID 0000.0001)  South neighbor = processor 0000
(PID.TID 0000.0001)   East neighbor = processor 0000
(PID.TID 0000.0001)   West neighbor = processor 0000
(PID.TID 0000.0001) // ======================================================
(PID.TID 0000.0001) // Mapping of tiles to threads
(PID.TID 0000.0001) // ======================================================
(PID.TID 0000.0001) // -o- Thread   1, tiles (   1:   1,   1:   1)
(PID.TID 0000.0001) 
(PID.TID 0000.0001) // ======================================================
(PID.TID 0000.0001) // Tile <-> Tile connectvity table
(PID.TID 0000.0001) // ======================================================
(PID.TID 0000.0001) // Tile number: 000001 (process no. = 000000)
(PID.TID 0000.0001) //        WEST: Tile = 000001, Process = 000000, Comm = put
(PID.TID 0000.0001) //                bi = 000001, bj = 000001
(PID.TID 0000.0001) //        EAST: Tile = 000001, Process = 000000, Comm = put
(PID.TID 0000.0001) //                bi = 000001, bj = 000001
(PID.TID 0000.0001) //       SOUTH: Tile = 000001, Process = 000000, Comm = put
(PID.TID 0000.0001) //                bi = 000001, bj = 000001
(PID.TID 0000.0001) //       NORTH: Tile = 000001, Process = 000000, Comm = put
(PID.TID 0000.0001) //                bi = 000001, bj = 000001
(PID.TID 0000.0001) 
(PID.TID 0000.0001)  INI_PARMS: opening model parameter file "data"
(PID.TID 0000.0001)  OPEN_COPY_DATA_FILE: opening file data
(PID.TID 0000.0001) // =======================================================
(PID.TID 0000.0001) // Parameter file "data"
(PID.TID 0000.0001) // =======================================================
(PID.TID 0000.0001) >#:::====================
(PID.TID 0000.0001) ># | Model parameters |
(PID.TID 0000.0001) ># ====================
(PID.TID 0000.0001) >#
(PID.TID 0000.0001) ># Continuous equation parameters
(PID.TID 0000.0001) > &PARM01
(PID.TID 0000.0001) ># momstepping=.FALSE.,
(PID.TID 0000.0001) ># tempstepping=.FALSE.,
(PID.TID 0000.0001) ># saltstepping=.FALSE.,
(PID.TID 0000.0001) > Tref = 50*-1.9,
(PID.TID 0000.0001) > Sref = 50*34.4,
(PID.TID 0000.0001) > viscAr=1.E-3,
(PID.TID 0000.0001) >#viscAh=600.0,
(PID.TID 0000.0001) > viscAhGrid=0.2,
(PID.TID 0000.0001) > viscA4Grid=0.02,
(PID.TID 0000.0001) > no_slip_sides=.FALSE.,
(PID.TID 0000.0001) > no_slip_bottom=.FALSE.,
(PID.TID 0000.0001) > diffKhT= 100.0,
(PID.TID 0000.0001) >#diffKhT= 600.0,
(PID.TID 0000.0001) > diffKrT=5.E-5,
(PID.TID 0000.0001) > diffKhS= 100.0,
(PID.TID 0000.0001) >#diffKhS= 600.0,
(PID.TID 0000.0001) > diffKrS=5.E-5,
(PID.TID 0000.0001) > bottomDragQuadratic=2.5E-3,
(PID.TID 0000.0001) > staggerTimestep = .true.,
(PID.TID 0000.0001) > tempAdvScheme=30,
(PID.TID 0000.0001) > saltAdvScheme=30,
(PID.TID 0000.0001) > vectorInvariantMomentum = .true.,
(PID.TID 0000.0001) >### momImplVertAdv=.true.,
(PID.TID 0000.0001) > tempImplVertAdv=.true.,
(PID.TID 0000.0001) > saltImplVertAdv=.true.,
(PID.TID 0000.0001) > eosType='JMD95Z',
(PID.TID 0000.0001) >#tAlpha = 2.E-4,
(PID.TID 0000.0001) >#sBeta  = 7.4E-4,
(PID.TID 0000.0001) > HeatCapacity_cp = 3974.0,
(PID.TID 0000.0001) > rhoConst=1000.,
(PID.TID 0000.0001) > rhoNil=1000.,
(PID.TID 0000.0001) > gravity=9.81,
(PID.TID 0000.0001) > gBaro=9.81,
(PID.TID 0000.0001) > implicitDiffusion = .true.,
(PID.TID 0000.0001) > implicitViscosity = .true.,
(PID.TID 0000.0001) > rigidLid=.FALSE.,
(PID.TID 0000.0001) > implicitFreeSurface=.TRUE.,
(PID.TID 0000.0001) > useRealFreshWaterFlux = .true.,
(PID.TID 0000.0001) > exactConserv=.TRUE.,
(PID.TID 0000.0001) ># start nlfs with rstar
(PID.TID 0000.0001) >#select_rStar=2,
(PID.TID 0000.0001) > nonlinFreeSurf=4,
(PID.TID 0000.0001) > hFacInf=0.2,
(PID.TID 0000.0001) > hFacSup=2.0,
(PID.TID 0000.0001) ># end nlfs with rstar
(PID.TID 0000.0001) > hFacMin=0.2,
(PID.TID 0000.0001) >#integr_GeoPot = 1,
(PID.TID 0000.0001) >#ivdc_kappa = 0.005.,
(PID.TID 0000.0001) >#implicitDiffusion=.true.,
(PID.TID 0000.0001) >#implicitViscosity=.true.,
(PID.TID 0000.0001) >#useCDscheme=.true.,
(PID.TID 0000.0001) >#nonHydrostatic=.true.,
(PID.TID 0000.0001) >#allowFreezing = .true.,
(PID.TID 0000.0001) > readBinaryPrec=64,
(PID.TID 0000.0001) >#writeBinaryPrec=64,
(PID.TID 0000.0001) >#debuglevel = 1,
(PID.TID 0000.0001) > selectCoriMap = 0,
(PID.TID 0000.0001) > f0 = 0.0,
(PID.TID 0000.0001) > useSingleCpuIO=.TRUE.,
(PID.TID 0000.0001) > globalFiles=.TRUE.,
(PID.TID 0000.0001) > useCoriolis=.TRUE.,
(PID.TID 0000.0001) > &
(PID.TID 0000.0001) >
(PID.TID 0000.0001) ># Elliptic solver parameters
(PID.TID 0000.0001) > &PARM02
(PID.TID 0000.0001) > cg2dMaxIters=300,
(PID.TID 0000.0001) > cg2dTargetResidual=1.E-11,
(PID.TID 0000.0001) >#cg3dMaxIters=40,
(PID.TID 0000.0001) >#cg3dTargetResidual=1.E-13,
(PID.TID 0000.0001) > &
(PID.TID 0000.0001) >
(PID.TID 0000.0001) >#Time stepping parameters
(PID.TID 0000.0001) > &PARM03
(PID.TID 0000.0001) ># niter0=0,
(PID.TID 0000.0001) ># nTimeSteps=25920000.,
(PID.TID 0000.0001) > nTimeSteps=12,
(PID.TID 0000.0001) > startTime=2592000.,
(PID.TID 0000.0001) ># startTime = 0.,
(PID.TID 0000.0001) >#startTime=62208000.,
(PID.TID 0000.0001) >#startTime=15552000.,
(PID.TID 0000.0001) >#endTime=31104000.,
(PID.TID 0000.0001) > deltaT=300.0,
(PID.TID 0000.0001) >### deltaT=1200.0,
(PID.TID 0000.0001) > forcing_In_AB  = .false.,
(PID.TID 0000.0001) >#rCD = 0.9896,
(PID.TID 0000.0001) > abEps=0.1,
(PID.TID 0000.0001) > cAdjFreq = -1.,
(PID.TID 0000.0001) > pChkptFreq=2592000,
(PID.TID 0000.0001) > chkptFreq=2592000.0,
(PID.TID 0000.0001) ># pChkptFreq=600.0,
(PID.TID 0000.0001) ># chkptFreq=600.0,
(PID.TID 0000.0001) > dumpFreq=15552000,
(PID.TID 0000.0001) > monitorFreq=15552000.,
(PID.TID 0000.0001) > monitorSelect=1,
(PID.TID 0000.0001) > monitorFreq=1.,
(PID.TID 0000.0001) > &
(PID.TID 0000.0001) >
(PID.TID 0000.0001) ># Gridding parameters
(PID.TID 0000.0001) > &PARM04
(PID.TID 0000.0001) > usingCartesianGrid=.FALSE.,
(PID.TID 0000.0001) > usingSphericalPolarGrid=.TRUE.,
(PID.TID 0000.0001) >#delR = 10., 10., 10., 10., 10., 10., 10., 10.01, 10.03, 10.11,
(PID.TID 0000.0001) >#10.32, 10.8, 11.76, 13.42, 16.04, 19.82, 24.85, 31.1, 38.42, 46.5,
(PID.TID 0000.0001) >#55., 63.5, 71.58, 78.9, 85.15, 90.18, 93.96, 96.58, 98.25, 99.25,
(PID.TID 0000.0001) >#100.01, 101.33, 104.56, 111.33, 122.83, 139.09, 158.94, 180.83, 203.55, 226.5,
(PID.TID 0000.0001) >#249.5, 272.5, 295.5, 318.5, 341.5, 364.5, 387.5, 410.5, 433.5, 456.5,
(PID.TID 0000.0001) > delR=130*10.,
(PID.TID 0000.0001) > delX=3*.125,
(PID.TID 0000.0001) > delY=400*.0078125,
(PID.TID 0000.0001) ># delYFile='dlat.bin',
(PID.TID 0000.0001) ># delY=30*10e3,
(PID.TID 0000.0001) > xgOrigin = -105.5,
(PID.TID 0000.0001) > ygOrigin =  -75.4457,
(PID.TID 0000.0001) > &
(PID.TID 0000.0001) >
(PID.TID 0000.0001) ># Input datasets
(PID.TID 0000.0001) > &PARM05
(PID.TID 0000.0001) > bathyFile='bathy101.box',
(PID.TID 0000.0001) > hydrogThetaFile='theta.init',	
(PID.TID 0000.0001) > hydrogSaltFile='salt.init',
(PID.TID 0000.0001) > pSurfInitFile='etainit.round.bin',
(PID.TID 0000.0001) > &
(PID.TID 0000.0001) 
(PID.TID 0000.0001)  INI_PARMS ; starts to read PARM01
(PID.TID 0000.0001)  INI_PARMS ; read PARM01 : OK
(PID.TID 0000.0001)  INI_PARMS ; starts to read PARM02
(PID.TID 0000.0001)  INI_PARMS ; read PARM02 : OK
(PID.TID 0000.0001)  INI_PARMS ; starts to read PARM03
(PID.TID 0000.0001)  INI_PARMS ; read PARM03 : OK
(PID.TID 0000.0001)  INI_PARMS ; starts to read PARM04
(PID.TID 0000.0001)  INI_PARMS ; read PARM04 : OK
(PID.TID 0000.0001)  INI_PARMS ; starts to read PARM05
(PID.TID 0000.0001)  INI_PARMS ; read PARM05 : OK
(PID.TID 0000.0001)  INI_PARMS: finished reading file "data"
(PID.TID 0000.0001)  PACKAGES_BOOT: opening data.pkg
(PID.TID 0000.0001)  OPEN_COPY_DATA_FILE: opening file data.pkg
(PID.TID 0000.0001) // =======================================================
(PID.TID 0000.0001) // Parameter file "data.pkg"
(PID.TID 0000.0001) // =======================================================
(PID.TID 0000.0001) ># Packages
(PID.TID 0000.0001) > &PACKAGES
(PID.TID 0000.0001) >#useKPP=.true.,
(PID.TID 0000.0001) > useOBCS=.true.,
(PID.TID 0000.0001) > useMNC=.FALSE.,
(PID.TID 0000.0001) > useShelfIce=.true.,
(PID.TID 0000.0001) > useStreamIce=.true.,
(PID.TID 0000.0001) >#useSEAICE=.true.,
(PID.TID 0000.0001) > useDiagnostics = .true.,
(PID.TID 0000.0001) > &
(PID.TID 0000.0001) 
(PID.TID 0000.0001)  PACKAGES_BOOT: finished reading data.pkg
(PID.TID 0000.0001)  PACKAGES_BOOT: On/Off package Summary
 --------  pkgs with a standard "usePKG" On/Off switch in "data.pkg":  --------
 pkg/obcs                 compiled   and   used ( useOBCS                  = T )
 pkg/shelfice             compiled   and   used ( useShelfIce              = T )
 pkg/streamice            compiled   and   used ( useStreamIce             = T )
 pkg/diagnostics          compiled   and   used ( useDiagnostics           = T )
 -------- pkgs without standard "usePKG" On/Off switch in "data.pkg":  --------
 pkg/generic_advdiff      compiled   and   used ( useGAD                   = T )
 pkg/mom_common           compiled   and   used ( momStepping              = T )
 pkg/mom_vecinv           compiled   and   used ( +vectorInvariantMomentum = T )
 pkg/mom_fluxform         compiled but not used ( & not vectorInvariantMom = F )
 pkg/monitor              compiled   and   used ( monitorFreq > 0.         = T )
 pkg/debug                compiled but not used ( debugMode                = F )
 pkg/rw                   compiled   and   used
 pkg/mdsio                compiled   and   used
(PID.TID 0000.0001)  PACKAGES_BOOT: End of package Summary
(PID.TID 0000.0001) 
(PID.TID 0000.0001)  OBCS_READPARMS: opening data.obcs
(PID.TID 0000.0001)  OPEN_COPY_DATA_FILE: opening file data.obcs
(PID.TID 0000.0001) // =======================================================
(PID.TID 0000.0001) // Parameter file "data.obcs"
(PID.TID 0000.0001) // =======================================================
(PID.TID 0000.0001) ># Open-boundaries
(PID.TID 0000.0001) > &OBCS_PARM01
(PID.TID 0000.0001) > OB_Jnorth=3*400,
(PID.TID 0000.0001) > useOBCSprescribe=.true.,
(PID.TID 0000.0001) > useOBCSsponge=.true.,
(PID.TID 0000.0001) ># OBWuFile='uvel.obw',
(PID.TID 0000.0001) > OBNvFile='vvel.obw',
(PID.TID 0000.0001) > OBNtFile='theta.obw',
(PID.TID 0000.0001) > OBNsFile='salt.obw',
(PID.TID 0000.0001) > useOrlanskiNorth=.FALSE.,
(PID.TID 0000.0001) > &
(PID.TID 0000.0001) >
(PID.TID 0000.0001) ># Orlanski parameters
(PID.TID 0000.0001) > &OBCS_PARM02
(PID.TID 0000.0001) >#Cmax=0.45,
(PID.TID 0000.0001) >#cVelTimeScale=1000.,
(PID.TID 0000.0001) > &
(PID.TID 0000.0001) >
(PID.TID 0000.0001) ># Sponge layer parameters
(PID.TID 0000.0001) > &OBCS_PARM03
(PID.TID 0000.0001) > spongeThickness = 20,
(PID.TID 0000.0001) > Vrelaxobcsbound = 864000.,
(PID.TID 0000.0001) > Urelaxobcsbound = 864000.,
(PID.TID 0000.0001) > &
(PID.TID 0000.0001) 
(PID.TID 0000.0001)  OBCS_READPARMS: finished reading data.obcs
(PID.TID 0000.0001)  OB_indexUnset = /* unset OB index value (i.e. no OB) */
(PID.TID 0000.0001)                       0
(PID.TID 0000.0001)     ;
(PID.TID 0000.0001)  Northern OB global indices : OB_Jnorth =
(PID.TID 0000.0001)     3 @      400                            /* I =  1:  3 */
(PID.TID 0000.0001)  Southern OB global indices : OB_Jsouth =
(PID.TID 0000.0001)     3 @        0                            /* I =  1:  3 */
(PID.TID 0000.0001)  Eastern  OB global indices : OB_Ieast =
(PID.TID 0000.0001)   400 @        0                            /* J =  1:400 */
(PID.TID 0000.0001)  Western  OB global indices : OB_Iwest =
(PID.TID 0000.0001)   400 @        0                            /* J =  1:400 */
(PID.TID 0000.0001) 
(PID.TID 0000.0001)  SHELFICE_READPARMS: opening data.shelfice
(PID.TID 0000.0001)  OPEN_COPY_DATA_FILE: opening file data.shelfice
(PID.TID 0000.0001) // =======================================================
(PID.TID 0000.0001) // Parameter file "data.shelfice"
(PID.TID 0000.0001) // =======================================================
(PID.TID 0000.0001) ># ===================================
(PID.TID 0000.0001) ># | Parameters for SHELFICE package |
(PID.TID 0000.0001) ># ===================================
(PID.TID 0000.0001) > &SHELFICE_PARM01
(PID.TID 0000.0001) > SHELFICEwriteState = .true.,
(PID.TID 0000.0001) >#mult_shelfice=1.,
(PID.TID 0000.0001) >#useISOMIPTD = .true.,
(PID.TID 0000.0001) > SHELFICEconserve = .true.,
(PID.TID 0000.0001) > SHELFICEboundaryLayer = .true.,
(PID.TID 0000.0001) ># SHELFICEtopoFile='shelftopo.pig.bin',
(PID.TID 0000.0001) > SHELFICEtopoFile='shelftopo.round.bin',
(PID.TID 0000.0001) ># SHELFICEloadAnomalyFile = 'pload.pig.jmd95z',
(PID.TID 0000.0001) ># SHELFICEMassDynTendFile = 'MDS.bin',
(PID.TID 0000.0001) ># SHELFICEGroundInitFile= 'shelficegroundinit.bin',
(PID.TID 0000.0001) ># SHELFICEGroundTopoFile= 'shelftopo.ground.bin',
(PID.TID 0000.0001) > SHELFICErealFWflux =.true.,
(PID.TID 0000.0001) > SHELFICEmassFile = 'shelficemassinit.bin',
(PID.TID 0000.0001) > SHELFICEuseGammaFrict = .true.,
(PID.TID 0000.0001) > SHELFICEDragQuadratic = 0.0015,
(PID.TID 0000.0001) > shiCdrag = 0.0015,
(PID.TID 0000.0001) > SHELFICEMassStepping = .true.,
(PID.TID 0000.0001) > SHELFICERemeshFrequency = 2593800.0,
(PID.TID 0000.0001) > SHELFICESplitThreshold =1.25,
(PID.TID 0000.0001) > SHELFICEMergeThreshold =0.24,
(PID.TID 0000.0001) > SHELFICEEtaSponge = .true.,
(PID.TID 0000.0001) > shelficeEtaRelax = 432000.,
(PID.TID 0000.0001) > shelfice_etarestore_spongewidth = 5,
(PID.TID 0000.0001) > &
(PID.TID 0000.0001) 
(PID.TID 0000.0001)  SHELFICE_READPARMS: finished reading data.shelfice
(PID.TID 0000.0001) STREAMICE_READPARMS: opening data.streamice
(PID.TID 0000.0001)  OPEN_COPY_DATA_FILE: opening file data.streamice
(PID.TID 0000.0001) // =======================================================
(PID.TID 0000.0001) // Parameter file "data.streamice"
(PID.TID 0000.0001) // =======================================================
(PID.TID 0000.0001) ># ====================================
(PID.TID 0000.0001) ># | Parameters for STREAMICE package |
(PID.TID 0000.0001) ># ====================================
(PID.TID 0000.0001) > &STREAMICE_PARM01
(PID.TID 0000.0001) > streamice_maxnliter_cpl = 1,
(PID.TID 0000.0001) > streamice_maxcgiter_cpl = 700,
(PID.TID 0000.0001) > STREAMICE_allow_cpl=.true.,
(PID.TID 0000.0001) > streamice_vel_update = 43200.,
(PID.TID 0000.0001) > streamice_density = 917.,
(PID.TID 0000.0001) > streamice_density_ocean_avg = 1028.,
(PID.TID 0000.0001) > B_glen_isothermal = 700.,
(PID.TID 0000.0001) > C_basal_fric_const = 5.,
(PID.TID 0000.0001) > n_glen = 3.0,
(PID.TID 0000.0001) > n_basal_friction = 1.,
(PID.TID 0000.0001) > streamice_diagnostic_only=.false.,
(PID.TID 0000.0001) > eps_glen_min = 1.0e-12,
(PID.TID 0000.0001) > eps_u_min = 1.0e-12,
(PID.TID 0000.0001) > streamice_cg_tol = 1.0e-6,
(PID.TID 0000.0001) > STREAMICE_lower_cg_tol = .true.,
(PID.TID 0000.0001) > streamice_nonlin_tol = .000001,
(PID.TID 0000.0001) > streamice_nonlin_tol_fp = .00000001,
(PID.TID 0000.0001) > streamice_max_cg_iter = 700,
(PID.TID 0000.0001) > streamice_max_nl_iter = 50,
(PID.TID 0000.0001) > STREAMICE_calve_to_mask = .false.,
(PID.TID 0000.0001) > streamice_CFL_factor = 0.5,
(PID.TID 0000.0001) > STREAMICE_dump_mdsio = .true.,
(PID.TID 0000.0001) > streamice_bg_surf_slope_x = 0.,
(PID.TID 0000.0001) > STREAMICEthickInit='FILE',
(PID.TID 0000.0001) > STREAMICEthickFile='hinit666.box',
(PID.TID 0000.0001) ># STREAMICEthickFile='h0.bin',
(PID.TID 0000.0001) > STREAMICEtopogFile='bathy101.box',
(PID.TID 0000.0001) > STREAMICEuFaceBdryFile = 'ufacemask3.box',
(PID.TID 0000.0001) > STREAMICEvFaceBdryFile = 'vfacemask3.box',
(PID.TID 0000.0001) > STREAMICEvMassFluxFile='vmassflux3.box',
(PID.TID 0000.0001) ># STREAMICEvDirichValsFile='vdirich.box',
(PID.TID 0000.0001) > STREAMICEhmaskFile = 'hmask3.box',
(PID.TID 0000.0001) ># STREAMICEHBCyFile = 'HBCy.box',
(PID.TID 0000.0001) > STREAMICEbasalTracConfig='UNIFORM',
(PID.TID 0000.0001) > STREAMICEGlenConstConfig='UNIFORM',
(PID.TID 0000.0001) > STREAMICE_chkfixedptconvergence=.true.,
(PID.TID 0000.0001) > STREAMICE_chkresidconvergence=.false.,
(PID.TID 0000.0001) > streamice_buttr_width=55.e3,
(PID.TID 0000.0001) > useStreamiceFlowlineButtr=.true.,
(PID.TID 0000.0001) > &
(PID.TID 0000.0001) >
(PID.TID 0000.0001) > &STREAMICE_PARM02
(PID.TID 0000.0001) > shelf_max_draft = 1300.0,
(PID.TID 0000.0001) > shelf_min_draft = 300.0,
(PID.TID 0000.0001) > shelf_edge_pos = 70.0e3,
(PID.TID 0000.0001) > shelf_slope_scale = 62.0e3,
(PID.TID 0000.0001) > shelf_flat_width = 20.0e3,
(PID.TID 0000.0001) > &
(PID.TID 0000.0001) >
(PID.TID 0000.0001) ># &STREAMICE_PARMPETSC
(PID.TID 0000.0001) ># PETSC_SOLVER_TYPE = 'CG',
(PID.TID 0000.0001) ># PETSC_PRECOND_TYPE = 'GAMG',
(PID.TID 0000.0001) ># &
(PID.TID 0000.0001) >
(PID.TID 0000.0001) > &STREAMICE_PARM03
(PID.TID 0000.0001) > min_x_noflow_north = -200.0,
(PID.TID 0000.0001) > max_x_noflow_north = 0.0,
(PID.TID 0000.0001) > min_x_noflow_south = -200.0,
(PID.TID 0000.0001) > max_x_noflow_south = 0.0,
(PID.TID 0000.0001) > min_y_noflow_WEST = 0.0,
(PID.TID 0000.0001) > max_y_noflow_WEST = 0.0,
(PID.TID 0000.0001) > min_y_noflow_EAST = -180.0,
(PID.TID 0000.0001) > max_y_noflow_EAST = 0.0,
(PID.TID 0000.0001) > min_x_noStress_NORTH = 0.0e3,
(PID.TID 0000.0001) > max_x_noStress_NORTH = 0.0e3,
(PID.TID 0000.0001) > min_x_noStress_SOUTH = 0.0e3,
(PID.TID 0000.0001) > max_x_noStress_SOUTH = 0.0e3,
(PID.TID 0000.0001) > min_y_noStress_WEST = -1.0,
(PID.TID 0000.0001) > max_y_noStress_WEST = -1.0,
(PID.TID 0000.0001) > min_y_noStress_EAST = -1.0,
(PID.TID 0000.0001) > max_y_noStress_EAST = -1.0,
(PID.TID 0000.0001) > min_x_FluxBdry_NORTH = -1.0,
(PID.TID 0000.0001) > max_x_FluxBdry_NORTH = -1.0,
(PID.TID 0000.0001) > min_x_FluxBdry_SOUTH = -1.0,
(PID.TID 0000.0001) > max_x_FluxBdry_SOUTH = -1.0,
(PID.TID 0000.0001) > min_y_FluxBdry_WEST = 0.0,
(PID.TID 0000.0001) > max_y_FluxBdry_WEST = 0.0,
(PID.TID 0000.0001) > min_y_FluxBdry_EAST = -180.0,
(PID.TID 0000.0001) > max_y_FluxBdry_EAST = 0.0,
(PID.TID 0000.0001) > min_x_Dirich_NORTH = -1.0,
(PID.TID 0000.0001) > max_x_Dirich_NORTH = -1.0,
(PID.TID 0000.0001) > min_x_Dirich_SOUTH = -1.0,
(PID.TID 0000.0001) > max_x_Dirich_SOUTH = -1.0,
(PID.TID 0000.0001) > min_y_Dirich_WEST = -1.0,
(PID.TID 0000.0001) > max_y_Dirich_WEST = -1.0,
(PID.TID 0000.0001) > min_y_Dirich_EAST = -1.0,
(PID.TID 0000.0001) > max_y_Dirich_EAST = -1.0,
(PID.TID 0000.0001) > min_x_CFBC_NORTH = -1.0,
(PID.TID 0000.0001) > max_x_CFBC_NORTH = -1.0,
(PID.TID 0000.0001) > min_x_CFBC_SOUTH = -1.0,
(PID.TID 0000.0001) > max_x_CFBC_SOUTH = -1.0,
(PID.TID 0000.0001) > min_y_CFBC_WEST = -180.0,
(PID.TID 0000.0001) > max_y_CFBC_WEST = 0.0,
(PID.TID 0000.0001) > min_y_CFBC_EAST = 0.0,
(PID.TID 0000.0001) > max_y_CFBC_EAST = 0.0e3,
(PID.TID 0000.0001) > flux_bdry_val_EAST =1.5e6,
(PID.TID 0000.0001) > STREAMICE_NS_periodic = .false.,
(PID.TID 0000.0001) > STREAMICE_EW_periodic = .false.,
(PID.TID 0000.0001) > &
(PID.TID 0000.0001) 
(PID.TID 0000.0001) STREAMICE_READPARMS: read first param block
(PID.TID 0000.0001) STREAMICE_READPARMS: read third param block
(PID.TID 0000.0001)  DIAGNOSTICS_READPARMS: opening data.diagnostics
(PID.TID 0000.0001)  OPEN_COPY_DATA_FILE: opening file data.diagnostics
(PID.TID 0000.0001) // =======================================================
(PID.TID 0000.0001) // Parameter file "data.diagnostics"
(PID.TID 0000.0001) // =======================================================
(PID.TID 0000.0001) ># Diagnostic Package Choices
(PID.TID 0000.0001) >#-----------------
(PID.TID 0000.0001) ># for each output-stream:
(PID.TID 0000.0001) >#  filename(n) : prefix of the output file name (only 8.c long) for outp.stream n
(PID.TID 0000.0001) >#  frequency(n):< 0 : write snap-shot output every |frequency| seconds
(PID.TID 0000.0001) >#               > 0 : write time-average output every frequency seconds
(PID.TID 0000.0001) >#  timePhase(n)     : write at time = timePhase + multiple of |frequency|
(PID.TID 0000.0001) >#  averagingFreq(n) : frequency (in s) for periodic averaging interval
(PID.TID 0000.0001) >#  averagingPhase(n): phase     (in s) for periodic averaging interval
(PID.TID 0000.0001) >#  repeatCycle(n)   : number of averaging intervals in 1 cycle
(PID.TID 0000.0001) >#  levels(:,n) : list of levels to write to file (Notes: declared as REAL)
(PID.TID 0000.0001) >#                 when this entry is missing, select all common levels of this list
(PID.TID 0000.0001) >#  fields(:,n) : list of diagnostics fields (8.c) (see "available_diagnostics.log"
(PID.TID 0000.0001) >#                 file for the list of all available diag. in this particular config)
(PID.TID 0000.0001) >#-----------------
(PID.TID 0000.0001) > &DIAGNOSTICS_LIST
(PID.TID 0000.0001) ># diag_mnc     = .FALSE.,
(PID.TID 0000.0001) ># dumpAtLast   = .TRUE.,
(PID.TID 0000.0001) >  fields(1:14,1) = 'ETAN    ','oceTAUX ','oceTAUY ',
(PID.TID 0000.0001) >                 'oceQnet ','oceFWflx','MXLDEPTH',
(PID.TID 0000.0001) >                'SHIfwFlx','SHIhtFlx','SHIgammT','SHIgammS',
(PID.TID 0000.0001) >                'SHI_mass','SHIuStar','SHIRshel','SHI_MEff',
(PID.TID 0000.0001) >#                 'SI_Uvel ','SI_Vvel ','SI_Thick','SI_hmask',
(PID.TID 0000.0001) >#                 'SHIuLocM','SHIvLocM','SHIwLocM','SHItLocM','SHIsLocM',
(PID.TID 0000.0001) >#		 'SHItLocB','SHIsLocB'
(PID.TID 0000.0001) >#                'SHIForcT','SHIForcS',
(PID.TID 0000.0001) >#                'surForcT','surForcS','TFLUX   ','SFLUX   ','oceFreez',
(PID.TID 0000.0001) >#                 'TRELAX  ','SRELAX  ',
(PID.TID 0000.0001) >#                'GM_VisbK',
(PID.TID 0000.0001) >#  fields(1,1)='ETAN'
(PID.TID 0000.0001) >   filename(1) = 'surfDiag',
(PID.TID 0000.0001) >  frequency(1) =  300.,
(PID.TID 0000.0001) >   fields(1:7,2) = 'UVEL    ','VVEL    ','WVEL    ',
(PID.TID 0000.0001) >                 'THETA   ','SALT    ','RHOAnoma', 'CONVADJ',
(PID.TID 0000.0001) >   filename(2) = 'dynDiag',
(PID.TID 0000.0001) >  frequency(2) =  300.,
(PID.TID 0000.0001) >   fields(1:5,3) = 'SI_Uvel ','SI_Vvel ','SI_Thick','SI_hmask','SI_float',
(PID.TID 0000.0001) >   filename(3) = 'streamice',
(PID.TID 0000.0001) >  frequency(3) =  300.,
(PID.TID 0000.0001) >#  fields(1,3) = 'EXFpreci','EXFuwind','EXFvwind','EXFtaux ','EXFtauy ',
(PID.TID 0000.0001) >#                'EXFlwdn ','EXFswdn ','EXFatemp','EXFaqh  ','EXFpress',
(PID.TID 0000.0001) >#                'GM_PsiX ','GM_PsiY ',
(PID.TID 0000.0001) >#                'GM_Kwx  ','GM_Kwy  ','GM_Kwz  ',
(PID.TID 0000.0001) >#                'GM_Kux  ','GM_Kvy  ',
(PID.TID 0000.0001) >#                'GM_Kuz  ','GM_Kvz  ',
(PID.TID 0000.0001) >#- disable this output list by commenting out the file name
(PID.TID 0000.0001) >#  filename(3) = 'diagsEXF',
(PID.TID 0000.0001) ># frequency(3) = 1.,
(PID.TID 0000.0001) >#  fields(1,4) = 'ADVx_TH ','ADVy_TH ','ADVr_TH ',
(PID.TID 0000.0001) >#                'DIFx_TH ','DIFy_TH ','DFrE_TH ',
(PID.TID 0000.0001) >#                'DFrI_TH ',
(PID.TID 0000.0001) >#                'ADVx_SLT',
(PID.TID 0000.0001) >#  filename(4) = 'flxDiag',
(PID.TID 0000.0001) ># frequency(4) = 1296000.,
(PID.TID 0000.0001) > &
(PID.TID 0000.0001) >
(PID.TID 0000.0001) ># Parameter for Diagnostics of per level statistics:
(PID.TID 0000.0001) >#-----------------
(PID.TID 0000.0001) ># for each output-stream:
(PID.TID 0000.0001) >#  stat_fname(n) : prefix of the output file name (only 8.c long) for outp.stream n
(PID.TID 0000.0001) >#  stat_freq(n):< 0 : write snap-shot output every |stat_freq| seconds
(PID.TID 0000.0001) >#               > 0 : write time-average output every stat_freq seconds
(PID.TID 0000.0001) >#  stat_phase(n)    : write at time = stat_phase + multiple of |stat_freq|
(PID.TID 0000.0001) >#  stat_region(:,n) : list of "regions" (default: 1 region only=global)
(PID.TID 0000.0001) >#  stat_fields(:,n) : list of diagnostics fields (8.c) (see "available_diagnostics.log"
(PID.TID 0000.0001) >#                 file for the list of all available diag. in this particular config)
(PID.TID 0000.0001) >#-----------------
(PID.TID 0000.0001) > &DIAG_STATIS_PARMS
(PID.TID 0000.0001) >#- regional mask: 3 lat. band: 1 : y <= -24 ; 2 : -24<y<24 ; 3 : 24 <= y
(PID.TID 0000.0001) ># diagSt_regMaskFile='regMask_lat24.bin',
(PID.TID 0000.0001) ># nSetRegMskFile=1,
(PID.TID 0000.0001) ># set_regMask(1)= 1,  1,  1,
(PID.TID 0000.0001) ># val_regMask(1)= 1., 2., 3.,
(PID.TID 0000.0001) >#---
(PID.TID 0000.0001) >#stat_fields(1,1)= 'ETAN    ','UVEL    ','VVEL    ','WVEL    ',
(PID.TID 0000.0001) >#                  'THETA   ','SALT    ','SIarea  ','SIheff  ',
(PID.TID 0000.0001) >#   stat_fname(1)= 'dynStDiag',
(PID.TID 0000.0001) >#    stat_freq(1)= 864000.,
(PID.TID 0000.0001) > &
(PID.TID 0000.0001) >
(PID.TID 0000.0001) 
(PID.TID 0000.0001) S/R DIAGNOSTICS_READPARMS, read namelist "diagnostics_list": start
(PID.TID 0000.0001) S/R DIAGNOSTICS_READPARMS, read namelist "diagnostics_list": OK
(PID.TID 0000.0001) S/R DIAGNOSTICS_READPARMS, read namelist "DIAG_STATIS_PARMS": start
(PID.TID 0000.0001) S/R DIAGNOSTICS_READPARMS, read namelist "DIAG_STATIS_PARMS": OK
(PID.TID 0000.0001)  DIAGNOSTICS_READPARMS: global parameter summary:
(PID.TID 0000.0001)  dumpAtLast = /* always write time-ave diags at the end */
(PID.TID 0000.0001)                   F
(PID.TID 0000.0001)     ;
(PID.TID 0000.0001)  diag_mnc =   /* write NetCDF output files */
(PID.TID 0000.0001)                   F
(PID.TID 0000.0001)     ;
(PID.TID 0000.0001)  useMissingValue = /* put MissingValue where mask = 0 */
(PID.TID 0000.0001)                   F
(PID.TID 0000.0001)     ;
(PID.TID 0000.0001)  diagCG_maxIters = /* max number of iters in diag_cg2d */
(PID.TID 0000.0001)                     300
(PID.TID 0000.0001)     ;
(PID.TID 0000.0001)  diagCG_resTarget = /* residual target for diag_cg2d */
(PID.TID 0000.0001)                 9.999999999999999E-12
(PID.TID 0000.0001)     ;
(PID.TID 0000.0001)  diagCG_pcOffDFac = /* preconditioner off-diagonal factor */
(PID.TID 0000.0001)                 9.611687812379854E-01
(PID.TID 0000.0001)     ;
(PID.TID 0000.0001) -----------------------------------------------------
(PID.TID 0000.0001)  DIAGNOSTICS_READPARMS: active diagnostics summary:
(PID.TID 0000.0001) -----------------------------------------------------
(PID.TID 0000.0001) Creating Output Stream: surfDiag
(PID.TID 0000.0001) Output Frequency:        300.000000 ; Phase:           0.000000
(PID.TID 0000.0001)  Averaging Freq.:        300.000000 , Phase:           0.000000 , Cycle:   1
(PID.TID 0000.0001)  missing value: -9.990000000000E+02
(PID.TID 0000.0001)  Levels:    will be set later
(PID.TID 0000.0001)  Fields:    ETAN     oceTAUX  oceTAUY  oceQnet  oceFWflx MXLDEPTH SHIfwFlx SHIhtFlx SHIgammT SHIgammS
(PID.TID 0000.0001)  Fields:    SHI_mass SHIuStar SHIRshel SHI_MEff
(PID.TID 0000.0001) Creating Output Stream: dynDiag
(PID.TID 0000.0001) Output Frequency:        300.000000 ; Phase:           0.000000
(PID.TID 0000.0001)  Averaging Freq.:        300.000000 , Phase:           0.000000 , Cycle:   1
(PID.TID 0000.0001)  missing value: -9.990000000000E+02
(PID.TID 0000.0001)  Levels:    will be set later
(PID.TID 0000.0001)  Fields:    UVEL     VVEL     WVEL     THETA    SALT     RHOAnoma CONVADJ
(PID.TID 0000.0001) Creating Output Stream: streamice
(PID.TID 0000.0001) Output Frequency:        300.000000 ; Phase:           0.000000
(PID.TID 0000.0001)  Averaging Freq.:        300.000000 , Phase:           0.000000 , Cycle:   1
(PID.TID 0000.0001)  missing value: -9.990000000000E+02
(PID.TID 0000.0001)  Levels:    will be set later
(PID.TID 0000.0001)  Fields:    SI_Uvel  SI_Vvel  SI_Thick SI_hmask SI_float
(PID.TID 0000.0001) -----------------------------------------------------
(PID.TID 0000.0001)  DIAGNOSTICS_READPARMS: statistics diags. summary:
(PID.TID 0000.0001) -----------------------------------------------------
(PID.TID 0000.0001) -----------------------------------------------------
(PID.TID 0000.0001) SET_PARMS: done
(PID.TID 0000.0001) Enter INI_VERTICAL_GRID: setInterFDr=    T ; setCenterDr=    F
(PID.TID 0000.0001) %MON XC_max                       =  -1.0518750000000E+02
(PID.TID 0000.0001) %MON XC_min                       =  -1.0543750000000E+02
(PID.TID 0000.0001) %MON XC_mean                      =  -1.0531250000000E+02
(PID.TID 0000.0001) %MON XC_sd                        =   1.0206207261597E-01
(PID.TID 0000.0001) %MON XG_max                       =  -1.0525000000000E+02
(PID.TID 0000.0001) %MON XG_min                       =  -1.0550000000000E+02
(PID.TID 0000.0001) %MON XG_mean                      =  -1.0537500000000E+02
(PID.TID 0000.0001) %MON XG_sd                        =   1.0206207261597E-01
(PID.TID 0000.0001) %MON DXC_max                      =   4.2195172956806E+03
(PID.TID 0000.0001) %MON DXC_min                      =   3.4932435587116E+03
(PID.TID 0000.0001) %MON DXC_mean                     =   3.8573295402684E+03
(PID.TID 0000.0001) %MON DXC_sd                       =   2.1019269529356E+02
(PID.TID 0000.0001) %MON DXF_max                      =   4.2195172956806E+03
(PID.TID 0000.0001) %MON DXF_min                      =   3.4932435587116E+03
(PID.TID 0000.0001) %MON DXF_mean                     =   3.8573295402684E+03
(PID.TID 0000.0001) %MON DXF_sd                       =   2.1019269529356E+02
(PID.TID 0000.0001) %MON DXG_max                      =   4.2186145466767E+03
(PID.TID 0000.0001) %MON DXG_min                      =   3.4923265038643E+03
(PID.TID 0000.0001) %MON DXG_mean                     =   3.8564194144023E+03
(PID.TID 0000.0001) %MON DXG_sd                       =   2.1019683536103E+02
(PID.TID 0000.0001) %MON DXV_max                      =   4.2186145466767E+03
(PID.TID 0000.0001) %MON DXV_min                      =   3.4923265038643E+03
(PID.TID 0000.0001) %MON DXV_mean                     =   3.8564194144023E+03
(PID.TID 0000.0001) %MON DXV_sd                       =   2.1019683536103E+02
(PID.TID 0000.0001) %MON YC_max                       =  -7.2324606250000E+01
(PID.TID 0000.0001) %MON YC_min                       =  -7.5441793750000E+01
(PID.TID 0000.0001) %MON YC_mean                      =  -7.3883199999998E+01
(PID.TID 0000.0001) %MON YC_sd                        =   9.0210697651127E-01
(PID.TID 0000.0001) %MON YG_max                       =  -7.2328512500000E+01
(PID.TID 0000.0001) %MON YG_min                       =  -7.5445700000000E+01
(PID.TID 0000.0001) %MON YG_mean                      =  -7.3887106249998E+01
(PID.TID 0000.0001) %MON YG_sd                        =   9.0210697651127E-01
(PID.TID 0000.0001) %MON DYC_max                      =   8.6857401056280E+02
(PID.TID 0000.0001) %MON DYC_min                      =   8.6857401056280E+02
(PID.TID 0000.0001) %MON DYC_mean                     =   8.6857401056282E+02
(PID.TID 0000.0001) %MON DYC_sd                       =   1.9554136088118E-11
(PID.TID 0000.0001) %MON DYF_max                      =   8.6857401056280E+02
(PID.TID 0000.0001) %MON DYF_min                      =   8.6857401056280E+02
(PID.TID 0000.0001) %MON DYF_mean                     =   8.6857401056282E+02
(PID.TID 0000.0001) %MON DYF_sd                       =   1.9554136088118E-11
(PID.TID 0000.0001) %MON DYG_max                      =   8.6857401056280E+02
(PID.TID 0000.0001) %MON DYG_min                      =   8.6857401056280E+02
(PID.TID 0000.0001) %MON DYG_mean                     =   8.6857401056282E+02
(PID.TID 0000.0001) %MON DYG_sd                       =   1.9554136088118E-11
(PID.TID 0000.0001) %MON DYU_max                      =   8.6857401056280E+02
(PID.TID 0000.0001) %MON DYU_min                      =   8.6857401056280E+02
(PID.TID 0000.0001) %MON DYU_mean                     =   8.6857401056282E+02
(PID.TID 0000.0001) %MON DYU_sd                       =   1.9554136088118E-11
(PID.TID 0000.0001) %MON RA_max                       =   3.6649630573121E+06
(PID.TID 0000.0001) %MON RA_min                       =   3.0341405653118E+06
(PID.TID 0000.0001) %MON RA_mean                      =   3.3503761862578E+06
(PID.TID 0000.0001) %MON RA_sd                        =   1.8256791220069E+05
(PID.TID 0000.0001) %MON RAW_max                      =   3.6649630573121E+06
(PID.TID 0000.0001) %MON RAW_min                      =   3.0341405653118E+06
(PID.TID 0000.0001) %MON RAW_mean                     =   3.3503761862578E+06
(PID.TID 0000.0001) %MON RAW_sd                       =   1.8256791220069E+05
(PID.TID 0000.0001) %MON RAS_max                      =   3.6641789529870E+06
(PID.TID 0000.0001) %MON RAS_min                      =   3.0333440353089E+06
(PID.TID 0000.0001) %MON RAS_mean                     =   3.3495856745848E+06
(PID.TID 0000.0001) %MON RAS_sd                       =   1.8257150815570E+05
(PID.TID 0000.0001) %MON RAZ_max                      =   3.6641789529870E+06
(PID.TID 0000.0001) %MON RAZ_min                      =   3.0333440353089E+06
(PID.TID 0000.0001) %MON RAZ_mean                     =   3.3495856745848E+06
(PID.TID 0000.0001) %MON RAZ_sd                       =   1.8257150815570E+05
(PID.TID 0000.0001) %MON AngleCS_max                  =   1.0000000000000E+00
(PID.TID 0000.0001) %MON AngleCS_min                  =   1.0000000000000E+00
(PID.TID 0000.0001) %MON AngleCS_mean                 =   1.0000000000000E+00
(PID.TID 0000.0001) %MON AngleCS_sd                   =   0.0000000000000E+00
(PID.TID 0000.0001) %MON AngleSN_max                  =   0.0000000000000E+00
(PID.TID 0000.0001) %MON AngleSN_min                  =   0.0000000000000E+00
(PID.TID 0000.0001) %MON AngleSN_mean                 =   0.0000000000000E+00
(PID.TID 0000.0001) %MON AngleSN_sd                   =   0.0000000000000E+00
(PID.TID 0000.0001)  MDS_READ_FIELD: opening global file: bathy101.box
(PID.TID 0000.0001)  MDS_READ_FIELD: opening global file: shelftopo.round.bin
(PID.TID 0000.0001) // =======================================================
(PID.TID 0000.0001) // Field Model R_low (ini_masks_etc)
(PID.TID 0000.0001) // CMIN =         -1.299000000000000E+03
(PID.TID 0000.0001) // CMAX =         -1.000000000000000E+03
(PID.TID 0000.0001) // CINT =          1.107407407407407E+01
(PID.TID 0000.0001) // SYMBOLS (CMIN->CMAX): -abcdefghijklmnopqrstuvwxyz+
(PID.TID 0000.0001) //                  0.0: .
(PID.TID 0000.0001) // RANGE I (Lo:Hi:Step):(    -2:     6:     1)
(PID.TID 0000.0001) // RANGE J (Lo:Hi:Step):(   403:    -2:    -1)
(PID.TID 0000.0001) // RANGE K (Lo:Hi:Step):(   1:   1:   1)
(PID.TID 0000.0001) // =======================================================
(PID.TID 0000.0001) K =   1
(PID.TID 0000.0001) //
(PID.TID 0000.0001) // |--J--|210123456
(PID.TID 0000.0001) //    403 ---------
(PID.TID 0000.0001) //    402 ---------
(PID.TID 0000.0001) //    401 .........
(PID.TID 0000.0001) //    400 +++++++++
(PID.TID 0000.0001) //    399 +++++++++
(PID.TID 0000.0001) //    398 +++++++++
(PID.TID 0000.0001) //    397 +++++++++
(PID.TID 0000.0001) //    396 +++++++++
(PID.TID 0000.0001) //    395 +++++++++
(PID.TID 0000.0001) //    394 +++++++++
(PID.TID 0000.0001) //    393 +++++++++
(PID.TID 0000.0001) //    392 +++++++++
(PID.TID 0000.0001) //    391 +++++++++
(PID.TID 0000.0001) //    390 +++++++++
(PID.TID 0000.0001) //    389 +++++++++
(PID.TID 0000.0001) //    388 +++++++++
(PID.TID 0000.0001) //    387 +++++++++
(PID.TID 0000.0001) //    386 +++++++++
(PID.TID 0000.0001) //    385 +++++++++
(PID.TID 0000.0001) //    384 +++++++++
(PID.TID 0000.0001) //    383 +++++++++
(PID.TID 0000.0001) //    382 +++++++++
(PID.TID 0000.0001) //    381 +++++++++
(PID.TID 0000.0001) //    380 +++++++++
(PID.TID 0000.0001) //    379 +++++++++
(PID.TID 0000.0001) //    378 +++++++++
(PID.TID 0000.0001) //    377 +++++++++
(PID.TID 0000.0001) //    376 +++++++++
(PID.TID 0000.0001) //    375 +++++++++
(PID.TID 0000.0001) //    374 +++++++++
(PID.TID 0000.0001) //    373 +++++++++
(PID.TID 0000.0001) //    372 +++++++++
(PID.TID 0000.0001) //    371 +++++++++
(PID.TID 0000.0001) //    370 +++++++++
(PID.TID 0000.0001) //    369 +++++++++
(PID.TID 0000.0001) //    368 +++++++++
(PID.TID 0000.0001) //    367 +++++++++
(PID.TID 0000.0001) //    366 +++++++++
(PID.TID 0000.0001) //    365 +++++++++
(PID.TID 0000.0001) //    364 +++++++++
(PID.TID 0000.0001) //    363 +++++++++
(PID.TID 0000.0001) //    362 +++++++++
(PID.TID 0000.0001) //    361 +++++++++
(PID.TID 0000.0001) //    360 +++++++++
(PID.TID 0000.0001) //    359 +++++++++
(PID.TID 0000.0001) //    358 +++++++++
(PID.TID 0000.0001) //    357 +++++++++
(PID.TID 0000.0001) //    356 +++++++++
(PID.TID 0000.0001) //    355 +++++++++
(PID.TID 0000.0001) //    354 +++++++++
(PID.TID 0000.0001) //    353 +++++++++
(PID.TID 0000.0001) //    352 +++++++++
(PID.TID 0000.0001) //    351 +++++++++
(PID.TID 0000.0001) //    350 +++++++++
(PID.TID 0000.0001) //    349 +++++++++
(PID.TID 0000.0001) //    348 +++++++++
(PID.TID 0000.0001) //    347 +++++++++
(PID.TID 0000.0001) //    346 +++++++++
(PID.TID 0000.0001) //    345 +++++++++
(PID.TID 0000.0001) //    344 +++++++++
(PID.TID 0000.0001) //    343 +++++++++
(PID.TID 0000.0001) //    342 +++++++++
(PID.TID 0000.0001) //    341 +++++++++
(PID.TID 0000.0001) //    340 +++++++++
(PID.TID 0000.0001) //    339 +++++++++
(PID.TID 0000.0001) //    338 +++++++++
(PID.TID 0000.0001) //    337 +++++++++
(PID.TID 0000.0001) //    336 +++++++++
(PID.TID 0000.0001) //    335 +++++++++
(PID.TID 0000.0001) //    334 +++++++++
(PID.TID 0000.0001) //    333 +++++++++
(PID.TID 0000.0001) //    332 +++++++++
(PID.TID 0000.0001) //    331 +++++++++
(PID.TID 0000.0001) //    330 +++++++++
(PID.TID 0000.0001) //    329 +++++++++
(PID.TID 0000.0001) //    328 +++++++++
(PID.TID 0000.0001) //    327 +++++++++
(PID.TID 0000.0001) //    326 +++++++++
(PID.TID 0000.0001) //    325 +++++++++
(PID.TID 0000.0001) //    324 +++++++++
(PID.TID 0000.0001) //    323 +++++++++
(PID.TID 0000.0001) //    322 +++++++++
(PID.TID 0000.0001) //    321 +++++++++
(PID.TID 0000.0001) //    320 +++++++++
(PID.TID 0000.0001) //    319 +++++++++
(PID.TID 0000.0001) //    318 +++++++++
(PID.TID 0000.0001) //    317 +++++++++
(PID.TID 0000.0001) //    316 +++++++++
(PID.TID 0000.0001) //    315 +++++++++
(PID.TID 0000.0001) //    314 +++++++++
(PID.TID 0000.0001) //    313 +++++++++
(PID.TID 0000.0001) //    312 +++++++++
(PID.TID 0000.0001) //    311 +++++++++
(PID.TID 0000.0001) //    310 +++++++++
(PID.TID 0000.0001) //    309 +++++++++
(PID.TID 0000.0001) //    308 +++++++++
(PID.TID 0000.0001) //    307 +++++++++
(PID.TID 0000.0001) //    306 +++++++++
(PID.TID 0000.0001) //    305 +++++++++
(PID.TID 0000.0001) //    304 +++++++++
(PID.TID 0000.0001) //    303 +++++++++
(PID.TID 0000.0001) //    302 +++++++++
(PID.TID 0000.0001) //    301 +++++++++
(PID.TID 0000.0001) //    300 +++++++++
(PID.TID 0000.0001) //    299 +++++++++
(PID.TID 0000.0001) //    298 +++++++++
(PID.TID 0000.0001) //    297 +++++++++
(PID.TID 0000.0001) //    296 +++++++++
(PID.TID 0000.0001) //    295 zzzzzzzzz
(PID.TID 0000.0001) //    294 zzzzzzzzz
(PID.TID 0000.0001) //    293 zzzzzzzzz
(PID.TID 0000.0001) //    292 zzzzzzzzz
(PID.TID 0000.0001) //    291 zzzzzzzzz
(PID.TID 0000.0001) //    290 zzzzzzzzz
(PID.TID 0000.0001) //    289 zzzzzzzzz
(PID.TID 0000.0001) //    288 zzzzzzzzz
(PID.TID 0000.0001) //    287 zzzzzzzzz
(PID.TID 0000.0001) //    286 zzzzzzzzz
(PID.TID 0000.0001) //    285 zzzzzzzzz
(PID.TID 0000.0001) //    284 yyyyyyyyy
(PID.TID 0000.0001) //    283 yyyyyyyyy
(PID.TID 0000.0001) //    282 yyyyyyyyy
(PID.TID 0000.0001) //    281 yyyyyyyyy
(PID.TID 0000.0001) //    280 yyyyyyyyy
(PID.TID 0000.0001) //    279 yyyyyyyyy
(PID.TID 0000.0001) //    278 yyyyyyyyy
(PID.TID 0000.0001) //    277 yyyyyyyyy
(PID.TID 0000.0001) //    276 yyyyyyyyy
(PID.TID 0000.0001) //    275 yyyyyyyyy
(PID.TID 0000.0001) //    274 yyyyyyyyy
(PID.TID 0000.0001) //    273 xxxxxxxxx
(PID.TID 0000.0001) //    272 xxxxxxxxx
(PID.TID 0000.0001) //    271 xxxxxxxxx
(PID.TID 0000.0001) //    270 xxxxxxxxx
(PID.TID 0000.0001) //    269 xxxxxxxxx
(PID.TID 0000.0001) //    268 xxxxxxxxx
(PID.TID 0000.0001) //    267 xxxxxxxxx
(PID.TID 0000.0001) //    266 xxxxxxxxx
(PID.TID 0000.0001) //    265 xxxxxxxxx
(PID.TID 0000.0001) //    264 xxxxxxxxx
(PID.TID 0000.0001) //    263 xxxxxxxxx
(PID.TID 0000.0001) //    262 wwwwwwwww
(PID.TID 0000.0001) //    261 wwwwwwwww
(PID.TID 0000.0001) //    260 wwwwwwwww
(PID.TID 0000.0001) //    259 wwwwwwwww
(PID.TID 0000.0001) //    258 wwwwwwwww
(PID.TID 0000.0001) //    257 wwwwwwwww
(PID.TID 0000.0001) //    256 wwwwwwwww
(PID.TID 0000.0001) //    255 wwwwwwwww
(PID.TID 0000.0001) //    254 wwwwwwwww
(PID.TID 0000.0001) //    253 wwwwwwwww
(PID.TID 0000.0001) //    252 wwwwwwwww
(PID.TID 0000.0001) //    251 vvvvvvvvv
(PID.TID 0000.0001) //    250 vvvvvvvvv
(PID.TID 0000.0001) //    249 vvvvvvvvv
(PID.TID 0000.0001) //    248 vvvvvvvvv
(PID.TID 0000.0001) //    247 vvvvvvvvv
(PID.TID 0000.0001) //    246 vvvvvvvvv
(PID.TID 0000.0001) //    245 vvvvvvvvv
(PID.TID 0000.0001) //    244 vvvvvvvvv
(PID.TID 0000.0001) //    243 vvvvvvvvv
(PID.TID 0000.0001) //    242 vvvvvvvvv
(PID.TID 0000.0001) //    241 vvvvvvvvv
(PID.TID 0000.0001) //    240 uuuuuuuuu
(PID.TID 0000.0001) //    239 uuuuuuuuu
(PID.TID 0000.0001) //    238 uuuuuuuuu
(PID.TID 0000.0001) //    237 uuuuuuuuu
(PID.TID 0000.0001) //    236 uuuuuuuuu
(PID.TID 0000.0001) //    235 uuuuuuuuu
(PID.TID 0000.0001) //    234 uuuuuuuuu
(PID.TID 0000.0001) //    233 uuuuuuuuu
(PID.TID 0000.0001) //    232 uuuuuuuuu
(PID.TID 0000.0001) //    231 uuuuuuuuu
(PID.TID 0000.0001) //    230 ttttttttt
(PID.TID 0000.0001) //    229 ttttttttt
(PID.TID 0000.0001) //    228 ttttttttt
(PID.TID 0000.0001) //    227 ttttttttt
(PID.TID 0000.0001) //    226 ttttttttt
(PID.TID 0000.0001) //    225 ttttttttt
(PID.TID 0000.0001) //    224 ttttttttt
(PID.TID 0000.0001) //    223 ttttttttt
(PID.TID 0000.0001) //    222 ttttttttt
(PID.TID 0000.0001) //    221 ttttttttt
(PID.TID 0000.0001) //    220 ttttttttt
(PID.TID 0000.0001) //    219 ttttttttt
(PID.TID 0000.0001) //    218 ttttttttt
(PID.TID 0000.0001) //    217 sssssssss
(PID.TID 0000.0001) //    216 sssssssss
(PID.TID 0000.0001) //    215 sssssssss
(PID.TID 0000.0001) //    214 sssssssss
(PID.TID 0000.0001) //    213 sssssssss
(PID.TID 0000.0001) //    212 sssssssss
(PID.TID 0000.0001) //    211 sssssssss
(PID.TID 0000.0001) //    210 sssssssss
(PID.TID 0000.0001) //    209 sssssssss
(PID.TID 0000.0001) //    208 sssssssss
(PID.TID 0000.0001) //    207 sssssssss
(PID.TID 0000.0001) //    206 rrrrrrrrr
(PID.TID 0000.0001) //    205 rrrrrrrrr
(PID.TID 0000.0001) //    204 rrrrrrrrr
(PID.TID 0000.0001) //    203 rrrrrrrrr
(PID.TID 0000.0001) //    202 rrrrrrrrr
(PID.TID 0000.0001) //    201 rrrrrrrrr
(PID.TID 0000.0001) //    200 rrrrrrrrr
(PID.TID 0000.0001) //    199 rrrrrrrrr
(PID.TID 0000.0001) //    198 rrrrrrrrr
(PID.TID 0000.0001) //    197 rrrrrrrrr
(PID.TID 0000.0001) //    196 rrrrrrrrr
(PID.TID 0000.0001) //    195 qqqqqqqqq
(PID.TID 0000.0001) //    194 qqqqqqqqq
(PID.TID 0000.0001) //    193 qqqqqqqqq
(PID.TID 0000.0001) //    192 qqqqqqqqq
(PID.TID 0000.0001) //    191 qqqqqqqqq
(PID.TID 0000.0001) //    190 qqqqqqqqq
(PID.TID 0000.0001) //    189 qqqqqqqqq
(PID.TID 0000.0001) //    188 qqqqqqqqq
(PID.TID 0000.0001) //    187 qqqqqqqqq
(PID.TID 0000.0001) //    186 qqqqqqqqq
(PID.TID 0000.0001) //    185 qqqqqqqqq
(PID.TID 0000.0001) //    184 ppppppppp
(PID.TID 0000.0001) //    183 ppppppppp
(PID.TID 0000.0001) //    182 ppppppppp
(PID.TID 0000.0001) //    181 ppppppppp
(PID.TID 0000.0001) //    180 ppppppppp
(PID.TID 0000.0001) //    179 ppppppppp
(PID.TID 0000.0001) //    178 ppppppppp
(PID.TID 0000.0001) //    177 ppppppppp
(PID.TID 0000.0001) //    176 ppppppppp
(PID.TID 0000.0001) //    175 ppppppppp
(PID.TID 0000.0001) //    174 ppppppppp
(PID.TID 0000.0001) //    173 ooooooooo
(PID.TID 0000.0001) //    172 ooooooooo
(PID.TID 0000.0001) //    171 ooooooooo
(PID.TID 0000.0001) //    170 ooooooooo
(PID.TID 0000.0001) //    169 ooooooooo
(PID.TID 0000.0001) //    168 ooooooooo
(PID.TID 0000.0001) //    167 ooooooooo
(PID.TID 0000.0001) //    166 ooooooooo
(PID.TID 0000.0001) //    165 ooooooooo
(PID.TID 0000.0001) //    164 ooooooooo
(PID.TID 0000.0001) //    163 ooooooooo
(PID.TID 0000.0001) //    162 nnnnnnnnn
(PID.TID 0000.0001) //    161 nnnnnnnnn
(PID.TID 0000.0001) //    160 nnnnnnnnn
(PID.TID 0000.0001) //    159 nnnnnnnnn
(PID.TID 0000.0001) //    158 nnnnnnnnn
(PID.TID 0000.0001) //    157 nnnnnnnnn
(PID.TID 0000.0001) //    156 nnnnnnnnn
(PID.TID 0000.0001) //    155 nnnnnnnnn
(PID.TID 0000.0001) //    154 nnnnnnnnn
(PID.TID 0000.0001) //    153 nnnnnnnnn
(PID.TID 0000.0001) //    152 nnnnnnnnn
(PID.TID 0000.0001) //    151 mmmmmmmmm
(PID.TID 0000.0001) //    150 mmmmmmmmm
(PID.TID 0000.0001) //    149 mmmmmmmmm
(PID.TID 0000.0001) //    148 mmmmmmmmm
(PID.TID 0000.0001) //    147 mmmmmmmmm
(PID.TID 0000.0001) //    146 mmmmmmmmm
(PID.TID 0000.0001) //    145 mmmmmmmmm
(PID.TID 0000.0001) //    144 mmmmmmmmm
(PID.TID 0000.0001) //    143 mmmmmmmmm
(PID.TID 0000.0001) //    142 mmmmmmmmm
(PID.TID 0000.0001) //    141 mmmmmmmmm
(PID.TID 0000.0001) //    140 lllllllll
(PID.TID 0000.0001) //    139 lllllllll
(PID.TID 0000.0001) //    138 lllllllll
(PID.TID 0000.0001) //    137 lllllllll
(PID.TID 0000.0001) //    136 lllllllll
(PID.TID 0000.0001) //    135 lllllllll
(PID.TID 0000.0001) //    134 lllllllll
(PID.TID 0000.0001) //    133 lllllllll
(PID.TID 0000.0001) //    132 lllllllll
(PID.TID 0000.0001) //    131 lllllllll
(PID.TID 0000.0001) //    130 kkkkkkkkk
(PID.TID 0000.0001) //    129 kkkkkkkkk
(PID.TID 0000.0001) //    128 kkkkkkkkk
(PID.TID 0000.0001) //    127 kkkkkkkkk
(PID.TID 0000.0001) //    126 kkkkkkkkk
(PID.TID 0000.0001) //    125 kkkkkkkkk
(PID.TID 0000.0001) //    124 kkkkkkkkk
(PID.TID 0000.0001) //    123 kkkkkkkkk
(PID.TID 0000.0001) //    122 kkkkkkkkk
(PID.TID 0000.0001) //    121 kkkkkkkkk
(PID.TID 0000.0001) //    120 kkkkkkkkk
(PID.TID 0000.0001) //    119 kkkkkkkkk
(PID.TID 0000.0001) //    118 jjjjjjjjj
(PID.TID 0000.0001) //    117 jjjjjjjjj
(PID.TID 0000.0001) //    116 jjjjjjjjj
(PID.TID 0000.0001) //    115 jjjjjjjjj
(PID.TID 0000.0001) //    114 jjjjjjjjj
(PID.TID 0000.0001) //    113 jjjjjjjjj
(PID.TID 0000.0001) //    112 jjjjjjjjj
(PID.TID 0000.0001) //    111 jjjjjjjjj
(PID.TID 0000.0001) //    110 jjjjjjjjj
(PID.TID 0000.0001) //    109 jjjjjjjjj
(PID.TID 0000.0001) //    108 jjjjjjjjj
(PID.TID 0000.0001) //    107 iiiiiiiii
(PID.TID 0000.0001) //    106 iiiiiiiii
(PID.TID 0000.0001) //    105 iiiiiiiii
(PID.TID 0000.0001) //    104 iiiiiiiii
(PID.TID 0000.0001) //    103 iiiiiiiii
(PID.TID 0000.0001) //    102 iiiiiiiii
(PID.TID 0000.0001) //    101 iiiiiiiii
(PID.TID 0000.0001) //    100 iiiiiiiii
(PID.TID 0000.0001) //     99 iiiiiiiii
(PID.TID 0000.0001) //     98 iiiiiiiii
(PID.TID 0000.0001) //     97 iiiiiiiii
(PID.TID 0000.0001) //     96 hhhhhhhhh
(PID.TID 0000.0001) //     95 hhhhhhhhh
(PID.TID 0000.0001) //     94 hhhhhhhhh
(PID.TID 0000.0001) //     93 hhhhhhhhh
(PID.TID 0000.0001) //     92 hhhhhhhhh
(PID.TID 0000.0001) //     91 hhhhhhhhh
(PID.TID 0000.0001) //     90 hhhhhhhhh
(PID.TID 0000.0001) //     89 hhhhhhhhh
(PID.TID 0000.0001) //     88 hhhhhhhhh
(PID.TID 0000.0001) //     87 hhhhhhhhh
(PID.TID 0000.0001) //     86 hhhhhhhhh
(PID.TID 0000.0001) //     85 ggggggggg
(PID.TID 0000.0001) //     84 ggggggggg
(PID.TID 0000.0001) //     83 ggggggggg
(PID.TID 0000.0001) //     82 ggggggggg
(PID.TID 0000.0001) //     81 ggggggggg
(PID.TID 0000.0001) //     80 ggggggggg
(PID.TID 0000.0001) //     79 ggggggggg
(PID.TID 0000.0001) //     78 ggggggggg
(PID.TID 0000.0001) //     77 ggggggggg
(PID.TID 0000.0001) //     76 ggggggggg
(PID.TID 0000.0001) //     75 ggggggggg
(PID.TID 0000.0001) //     74 ggggggggg
(PID.TID 0000.0001) //     73 fffffffff
(PID.TID 0000.0001) //     72 fffffffff
(PID.TID 0000.0001) //     71 fffffffff
(PID.TID 0000.0001) //     70 fffffffff
(PID.TID 0000.0001) //     69 fffffffff
(PID.TID 0000.0001) //     68 fffffffff
(PID.TID 0000.0001) //     67 fffffffff
(PID.TID 0000.0001) //     66 fffffffff
(PID.TID 0000.0001) //     65 fffffffff
(PID.TID 0000.0001) //     64 fffffffff
(PID.TID 0000.0001) //     63 fffffffff
(PID.TID 0000.0001) //     62 eeeeeeeee
(PID.TID 0000.0001) //     61 eeeeeeeee
(PID.TID 0000.0001) //     60 eeeeeeeee
(PID.TID 0000.0001) //     59 eeeeeeeee
(PID.TID 0000.0001) //     58 eeeeeeeee
(PID.TID 0000.0001) //     57 eeeeeeeee
(PID.TID 0000.0001) //     56 eeeeeeeee
(PID.TID 0000.0001) //     55 eeeeeeeee
(PID.TID 0000.0001) //     54 eeeeeeeee
(PID.TID 0000.0001) //     53 eeeeeeeee
(PID.TID 0000.0001) //     52 eeeeeeeee
(PID.TID 0000.0001) //     51 ddddddddd
(PID.TID 0000.0001) //     50 ddddddddd
(PID.TID 0000.0001) //     49 ddddddddd
(PID.TID 0000.0001) //     48 ddddddddd
(PID.TID 0000.0001) //     47 ddddddddd
(PID.TID 0000.0001) //     46 ddddddddd
(PID.TID 0000.0001) //     45 ddddddddd
(PID.TID 0000.0001) //     44 ddddddddd
(PID.TID 0000.0001) //     43 ddddddddd
(PID.TID 0000.0001) //     42 ddddddddd
(PID.TID 0000.0001) //     41 ddddddddd
(PID.TID 0000.0001) //     40 ccccccccc
(PID.TID 0000.0001) //     39 ccccccccc
(PID.TID 0000.0001) //     38 ccccccccc
(PID.TID 0000.0001) //     37 ccccccccc
(PID.TID 0000.0001) //     36 ccccccccc
(PID.TID 0000.0001) //     35 ccccccccc
(PID.TID 0000.0001) //     34 ccccccccc
(PID.TID 0000.0001) //     33 ccccccccc
(PID.TID 0000.0001) //     32 ccccccccc
(PID.TID 0000.0001) //     31 ccccccccc
(PID.TID 0000.0001) //     30 bbbbbbbbb
(PID.TID 0000.0001) //     29 bbbbbbbbb
(PID.TID 0000.0001) //     28 bbbbbbbbb
(PID.TID 0000.0001) //     27 bbbbbbbbb
(PID.TID 0000.0001) //     26 bbbbbbbbb
(PID.TID 0000.0001) //     25 bbbbbbbbb
(PID.TID 0000.0001) //     24 bbbbbbbbb
(PID.TID 0000.0001) //     23 bbbbbbbbb
(PID.TID 0000.0001) //     22 bbbbbbbbb
(PID.TID 0000.0001) //     21 bbbbbbbbb
(PID.TID 0000.0001) //     20 bbbbbbbbb
(PID.TID 0000.0001) //     19 bbbbbbbbb
(PID.TID 0000.0001) //     18 aaaaaaaaa
(PID.TID 0000.0001) //     17 aaaaaaaaa
(PID.TID 0000.0001) //     16 aaaaaaaaa
(PID.TID 0000.0001) //     15 aaaaaaaaa
(PID.TID 0000.0001) //     14 aaaaaaaaa
(PID.TID 0000.0001) //     13 aaaaaaaaa
(PID.TID 0000.0001) //     12 aaaaaaaaa
(PID.TID 0000.0001) //     11 aaaaaaaaa
(PID.TID 0000.0001) //     10 aaaaaaaaa
(PID.TID 0000.0001) //      9 aaaaaaaaa
(PID.TID 0000.0001) //      8 aaaaaaaaa
(PID.TID 0000.0001) //      7 ---------
(PID.TID 0000.0001) //      6 ---------
(PID.TID 0000.0001) //      5 ---------
(PID.TID 0000.0001) //      4 ---------
(PID.TID 0000.0001) //      3 ---------
(PID.TID 0000.0001) //      2 ---------
(PID.TID 0000.0001) //      1 .........
(PID.TID 0000.0001) //      0 +++++++++
(PID.TID 0000.0001) //     -1 +++++++++
(PID.TID 0000.0001) //     -2 +++++++++
(PID.TID 0000.0001) // =======================================================
(PID.TID 0000.0001) // END OF FIELD                                          =
(PID.TID 0000.0001) // =======================================================
(PID.TID 0000.0001) 
(PID.TID 0000.0001) // =======================================================
(PID.TID 0000.0001) // Field Model Ro_surf (ini_masks_etc)
(PID.TID 0000.0001) // CMIN =         -1.290000000000000E+03
(PID.TID 0000.0001) // CMAX =         -4.600000000000000E+02
(PID.TID 0000.0001) // CINT =          3.074074074074074E+01
(PID.TID 0000.0001) // SYMBOLS (CMIN->CMAX): -abcdefghijklmnopqrstuvwxyz+
(PID.TID 0000.0001) //                  0.0: .
(PID.TID 0000.0001) // RANGE I (Lo:Hi:Step):(    -2:     6:     1)
(PID.TID 0000.0001) // RANGE J (Lo:Hi:Step):(   403:    -2:    -1)
(PID.TID 0000.0001) // RANGE K (Lo:Hi:Step):(   1:   1:   1)
(PID.TID 0000.0001) // =======================================================
(PID.TID 0000.0001) K =   1
(PID.TID 0000.0001) //
(PID.TID 0000.0001) // |--J--|210123456
(PID.TID 0000.0001) //    403 ---------
(PID.TID 0000.0001) //    402 ---------
(PID.TID 0000.0001) //    401 .........
(PID.TID 0000.0001) //    400 .........
(PID.TID 0000.0001) //    399 .........
(PID.TID 0000.0001) //    398 .........
(PID.TID 0000.0001) //    397 .........
(PID.TID 0000.0001) //    396 .........
(PID.TID 0000.0001) //    395 .........
(PID.TID 0000.0001) //    394 .........
(PID.TID 0000.0001) //    393 .........
(PID.TID 0000.0001) //    392 .........
(PID.TID 0000.0001) //    391 .........
(PID.TID 0000.0001) //    390 .........
(PID.TID 0000.0001) //    389 .........
(PID.TID 0000.0001) //    388 .........
(PID.TID 0000.0001) //    387 .........
(PID.TID 0000.0001) //    386 .........
(PID.TID 0000.0001) //    385 .........
(PID.TID 0000.0001) //    384 .........
(PID.TID 0000.0001) //    383 .........
(PID.TID 0000.0001) //    382 .........
(PID.TID 0000.0001) //    381 .........
(PID.TID 0000.0001) //    380 .........
(PID.TID 0000.0001) //    379 .........
(PID.TID 0000.0001) //    378 .........
(PID.TID 0000.0001) //    377 .........
(PID.TID 0000.0001) //    376 .........
(PID.TID 0000.0001) //    375 .........
(PID.TID 0000.0001) //    374 .........
(PID.TID 0000.0001) //    373 .........
(PID.TID 0000.0001) //    372 .........
(PID.TID 0000.0001) //    371 .........
(PID.TID 0000.0001) //    370 .........
(PID.TID 0000.0001) //    369 .........
(PID.TID 0000.0001) //    368 .........
(PID.TID 0000.0001) //    367 .........
(PID.TID 0000.0001) //    366 .........
(PID.TID 0000.0001) //    365 .........
(PID.TID 0000.0001) //    364 .........
(PID.TID 0000.0001) //    363 .........
(PID.TID 0000.0001) //    362 .........
(PID.TID 0000.0001) //    361 .........
(PID.TID 0000.0001) //    360 .........
(PID.TID 0000.0001) //    359 .........
(PID.TID 0000.0001) //    358 .........
(PID.TID 0000.0001) //    357 .........
(PID.TID 0000.0001) //    356 .........
(PID.TID 0000.0001) //    355 .........
(PID.TID 0000.0001) //    354 .........
(PID.TID 0000.0001) //    353 .........
(PID.TID 0000.0001) //    352 .........
(PID.TID 0000.0001) //    351 .........
(PID.TID 0000.0001) //    350 .........
(PID.TID 0000.0001) //    349 .........
(PID.TID 0000.0001) //    348 .........
(PID.TID 0000.0001) //    347 .........
(PID.TID 0000.0001) //    346 .........
(PID.TID 0000.0001) //    345 .........
(PID.TID 0000.0001) //    344 .........
(PID.TID 0000.0001) //    343 .........
(PID.TID 0000.0001) //    342 .........
(PID.TID 0000.0001) //    341 .........
(PID.TID 0000.0001) //    340 .........
(PID.TID 0000.0001) //    339 .........
(PID.TID 0000.0001) //    338 .........
(PID.TID 0000.0001) //    337 .........
(PID.TID 0000.0001) //    336 .........
(PID.TID 0000.0001) //    335 .........
(PID.TID 0000.0001) //    334 .........
(PID.TID 0000.0001) //    333 .........
(PID.TID 0000.0001) //    332 .........
(PID.TID 0000.0001) //    331 .........
(PID.TID 0000.0001) //    330 .........
(PID.TID 0000.0001) //    329 .........
(PID.TID 0000.0001) //    328 .........
(PID.TID 0000.0001) //    327 .........
(PID.TID 0000.0001) //    326 .........
(PID.TID 0000.0001) //    325 .........
(PID.TID 0000.0001) //    324 .........
(PID.TID 0000.0001) //    323 .........
(PID.TID 0000.0001) //    322 .........
(PID.TID 0000.0001) //    321 .........
(PID.TID 0000.0001) //    320 .........
(PID.TID 0000.0001) //    319 .........
(PID.TID 0000.0001) //    318 .........
(PID.TID 0000.0001) //    317 .........
(PID.TID 0000.0001) //    316 .........
(PID.TID 0000.0001) //    315 .........
(PID.TID 0000.0001) //    314 .........
(PID.TID 0000.0001) //    313 .........
(PID.TID 0000.0001) //    312 .........
(PID.TID 0000.0001) //    311 .........
(PID.TID 0000.0001) //    310 .........
(PID.TID 0000.0001) //    309 .........
(PID.TID 0000.0001) //    308 .........
(PID.TID 0000.0001) //    307 .........
(PID.TID 0000.0001) //    306 .........
(PID.TID 0000.0001) //    305 .........
(PID.TID 0000.0001) //    304 .........
(PID.TID 0000.0001) //    303 .........
(PID.TID 0000.0001) //    302 .........
(PID.TID 0000.0001) //    301 .........
(PID.TID 0000.0001) //    300 +++++++++
(PID.TID 0000.0001) //    299 +++++++++
(PID.TID 0000.0001) //    298 zzzzzzzzz
(PID.TID 0000.0001) //    297 zzzzzzzzz
(PID.TID 0000.0001) //    296 zzzzzzzzz
(PID.TID 0000.0001) //    295 zzzzzzzzz
(PID.TID 0000.0001) //    294 yyyyyyyyy
(PID.TID 0000.0001) //    293 yyyyyyyyy
(PID.TID 0000.0001) //    292 yyyyyyyyy
(PID.TID 0000.0001) //    291 yyyyyyyyy
(PID.TID 0000.0001) //    290 xxxxxxxxx
(PID.TID 0000.0001) //    289 xxxxxxxxx
(PID.TID 0000.0001) //    288 xxxxxxxxx
(PID.TID 0000.0001) //    287 xxxxxxxxx
(PID.TID 0000.0001) //    286 wwwwwwwww
(PID.TID 0000.0001) //    285 wwwwwwwww
(PID.TID 0000.0001) //    284 wwwwwwwww
(PID.TID 0000.0001) //    283 wwwwwwwww
(PID.TID 0000.0001) //    282 vvvvvvvvv
(PID.TID 0000.0001) //    281 vvvvvvvvv
(PID.TID 0000.0001) //    280 vvvvvvvvv
(PID.TID 0000.0001) //    279 vvvvvvvvv
(PID.TID 0000.0001) //    278 uuuuuuuuu
(PID.TID 0000.0001) //    277 uuuuuuuuu
(PID.TID 0000.0001) //    276 uuuuuuuuu
(PID.TID 0000.0001) //    275 uuuuuuuuu
(PID.TID 0000.0001) //    274 ttttttttt
(PID.TID 0000.0001) //    273 ttttttttt
(PID.TID 0000.0001) //    272 ttttttttt
(PID.TID 0000.0001) //    271 ttttttttt
(PID.TID 0000.0001) //    270 ttttttttt
(PID.TID 0000.0001) //    269 ttttttttt
(PID.TID 0000.0001) //    268 sssssssss
(PID.TID 0000.0001) //    267 sssssssss
(PID.TID 0000.0001) //    266 sssssssss
(PID.TID 0000.0001) //    265 sssssssss
(PID.TID 0000.0001) //    264 rrrrrrrrr
(PID.TID 0000.0001) //    263 rrrrrrrrr
(PID.TID 0000.0001) //    262 rrrrrrrrr
(PID.TID 0000.0001) //    261 rrrrrrrrr
(PID.TID 0000.0001) //    260 rrrrrrrrr
(PID.TID 0000.0001) //    259 qqqqqqqqq
(PID.TID 0000.0001) //    258 qqqqqqqqq
(PID.TID 0000.0001) //    257 qqqqqqqqq
(PID.TID 0000.0001) //    256 qqqqqqqqq
(PID.TID 0000.0001) //    255 ppppppppp
(PID.TID 0000.0001) //    254 ppppppppp
(PID.TID 0000.0001) //    253 ppppppppp
(PID.TID 0000.0001) //    252 ppppppppp
(PID.TID 0000.0001) //    251 ppppppppp
(PID.TID 0000.0001) //    250 ooooooooo
(PID.TID 0000.0001) //    249 ooooooooo
(PID.TID 0000.0001) //    248 ooooooooo
(PID.TID 0000.0001) //    247 ooooooooo
(PID.TID 0000.0001) //    246 ooooooooo
(PID.TID 0000.0001) //    245 nnnnnnnnn
(PID.TID 0000.0001) //    244 nnnnnnnnn
(PID.TID 0000.0001) //    243 nnnnnnnnn
(PID.TID 0000.0001) //    242 nnnnnnnnn
(PID.TID 0000.0001) //    241 mmmmmmmmm
(PID.TID 0000.0001) //    240 mmmmmmmmm
(PID.TID 0000.0001) //    239 mmmmmmmmm
(PID.TID 0000.0001) //    238 mmmmmmmmm
(PID.TID 0000.0001) //    237 mmmmmmmmm
(PID.TID 0000.0001) //    236 lllllllll
(PID.TID 0000.0001) //    235 lllllllll
(PID.TID 0000.0001) //    234 lllllllll
(PID.TID 0000.0001) //    233 lllllllll
(PID.TID 0000.0001) //    232 lllllllll
(PID.TID 0000.0001) //    231 kkkkkkkkk
(PID.TID 0000.0001) //    230 kkkkkkkkk
(PID.TID 0000.0001) //    229 kkkkkkkkk
(PID.TID 0000.0001) //    228 kkkkkkkkk
(PID.TID 0000.0001) //    227 kkkkkkkkk
(PID.TID 0000.0001) //    226 jjjjjjjjj
(PID.TID 0000.0001) //    225 jjjjjjjjj
(PID.TID 0000.0001) //    224 jjjjjjjjj
(PID.TID 0000.0001) //    223 jjjjjjjjj
(PID.TID 0000.0001) //    222 jjjjjjjjj
(PID.TID 0000.0001) //    221 iiiiiiiii
(PID.TID 0000.0001) //    220 iiiiiiiii
(PID.TID 0000.0001) //    219 iiiiiiiii
(PID.TID 0000.0001) //    218 iiiiiiiii
(PID.TID 0000.0001) //    217 iiiiiiiii
(PID.TID 0000.0001) //    216 hhhhhhhhh
(PID.TID 0000.0001) //    215 hhhhhhhhh
(PID.TID 0000.0001) //    214 hhhhhhhhh
(PID.TID 0000.0001) //    213 hhhhhhhhh
(PID.TID 0000.0001) //    212 hhhhhhhhh
(PID.TID 0000.0001) //    211 hhhhhhhhh
(PID.TID 0000.0001) //    210 ggggggggg
(PID.TID 0000.0001) //    209 ggggggggg
(PID.TID 0000.0001) //    208 ggggggggg
(PID.TID 0000.0001) //    207 ggggggggg
(PID.TID 0000.0001) //    206 ggggggggg
(PID.TID 0000.0001) //    205 ggggggggg
(PID.TID 0000.0001) //    204 ggggggggg
(PID.TID 0000.0001) //    203 ggggggggg
(PID.TID 0000.0001) //    202 ggggggggg
(PID.TID 0000.0001) //    201 ggggggggg
(PID.TID 0000.0001) //    200 ggggggggg
(PID.TID 0000.0001) //    199 fffffffff
(PID.TID 0000.0001) //    198 fffffffff
(PID.TID 0000.0001) //    197 fffffffff
(PID.TID 0000.0001) //    196 fffffffff
(PID.TID 0000.0001) //    195 fffffffff
(PID.TID 0000.0001) //    194 fffffffff
(PID.TID 0000.0001) //    193 fffffffff
(PID.TID 0000.0001) //    192 fffffffff
(PID.TID 0000.0001) //    191 fffffffff
(PID.TID 0000.0001) //    190 fffffffff
(PID.TID 0000.0001) //    189 fffffffff
(PID.TID 0000.0001) //    188 fffffffff
(PID.TID 0000.0001) //    187 fffffffff
(PID.TID 0000.0001) //    186 fffffffff
(PID.TID 0000.0001) //    185 fffffffff
(PID.TID 0000.0001) //    184 fffffffff
(PID.TID 0000.0001) //    183 fffffffff
(PID.TID 0000.0001) //    182 fffffffff
(PID.TID 0000.0001) //    181 fffffffff
(PID.TID 0000.0001) //    180 fffffffff
(PID.TID 0000.0001) //    179 fffffffff
(PID.TID 0000.0001) //    178 fffffffff
(PID.TID 0000.0001) //    177 fffffffff
(PID.TID 0000.0001) //    176 fffffffff
(PID.TID 0000.0001) //    175 fffffffff
(PID.TID 0000.0001) //    174 fffffffff
(PID.TID 0000.0001) //    173 fffffffff
(PID.TID 0000.0001) //    172 fffffffff
(PID.TID 0000.0001) //    171 fffffffff
(PID.TID 0000.0001) //    170 eeeeeeeee
(PID.TID 0000.0001) //    169 eeeeeeeee
(PID.TID 0000.0001) //    168 eeeeeeeee
(PID.TID 0000.0001) //    167 eeeeeeeee
(PID.TID 0000.0001) //    166 eeeeeeeee
(PID.TID 0000.0001) //    165 eeeeeeeee
(PID.TID 0000.0001) //    164 eeeeeeeee
(PID.TID 0000.0001) //    163 eeeeeeeee
(PID.TID 0000.0001) //    162 eeeeeeeee
(PID.TID 0000.0001) //    161 eeeeeeeee
(PID.TID 0000.0001) //    160 eeeeeeeee
(PID.TID 0000.0001) //    159 eeeeeeeee
(PID.TID 0000.0001) //    158 eeeeeeeee
(PID.TID 0000.0001) //    157 eeeeeeeee
(PID.TID 0000.0001) //    156 eeeeeeeee
(PID.TID 0000.0001) //    155 eeeeeeeee
(PID.TID 0000.0001) //    154 eeeeeeeee
(PID.TID 0000.0001) //    153 eeeeeeeee
(PID.TID 0000.0001) //    152 eeeeeeeee
(PID.TID 0000.0001) //    151 eeeeeeeee
(PID.TID 0000.0001) //    150 eeeeeeeee
(PID.TID 0000.0001) //    149 eeeeeeeee
(PID.TID 0000.0001) //    148 eeeeeeeee
(PID.TID 0000.0001) //    147 eeeeeeeee
(PID.TID 0000.0001) //    146 eeeeeeeee
(PID.TID 0000.0001) //    145 eeeeeeeee
(PID.TID 0000.0001) //    144 eeeeeeeee
(PID.TID 0000.0001) //    143 eeeeeeeee
(PID.TID 0000.0001) //    142 eeeeeeeee
(PID.TID 0000.0001) //    141 eeeeeeeee
(PID.TID 0000.0001) //    140 ddddddddd
(PID.TID 0000.0001) //    139 ddddddddd
(PID.TID 0000.0001) //    138 ddddddddd
(PID.TID 0000.0001) //    137 ddddddddd
(PID.TID 0000.0001) //    136 ddddddddd
(PID.TID 0000.0001) //    135 ddddddddd
(PID.TID 0000.0001) //    134 ddddddddd
(PID.TID 0000.0001) //    133 ddddddddd
(PID.TID 0000.0001) //    132 ddddddddd
(PID.TID 0000.0001) //    131 ddddddddd
(PID.TID 0000.0001) //    130 ddddddddd
(PID.TID 0000.0001) //    129 ddddddddd
(PID.TID 0000.0001) //    128 ddddddddd
(PID.TID 0000.0001) //    127 ddddddddd
(PID.TID 0000.0001) //    126 ddddddddd
(PID.TID 0000.0001) //    125 ddddddddd
(PID.TID 0000.0001) //    124 ddddddddd
(PID.TID 0000.0001) //    123 ddddddddd
(PID.TID 0000.0001) //    122 ddddddddd
(PID.TID 0000.0001) //    121 ddddddddd
(PID.TID 0000.0001) //    120 ddddddddd
(PID.TID 0000.0001) //    119 ddddddddd
(PID.TID 0000.0001) //    118 ddddddddd
(PID.TID 0000.0001) //    117 ddddddddd
(PID.TID 0000.0001) //    116 ddddddddd
(PID.TID 0000.0001) //    115 ddddddddd
(PID.TID 0000.0001) //    114 ddddddddd
(PID.TID 0000.0001) //    113 ddddddddd
(PID.TID 0000.0001) //    112 ddddddddd
(PID.TID 0000.0001) //    111 ddddddddd
(PID.TID 0000.0001) //    110 ccccccccc
(PID.TID 0000.0001) //    109 ccccccccc
(PID.TID 0000.0001) //    108 ccccccccc
(PID.TID 0000.0001) //    107 ccccccccc
(PID.TID 0000.0001) //    106 ccccccccc
(PID.TID 0000.0001) //    105 ccccccccc
(PID.TID 0000.0001) //    104 ccccccccc
(PID.TID 0000.0001) //    103 ccccccccc
(PID.TID 0000.0001) //    102 ccccccccc
(PID.TID 0000.0001) //    101 ccccccccc
(PID.TID 0000.0001) //    100 ccccccccc
(PID.TID 0000.0001) //     99 ccccccccc
(PID.TID 0000.0001) //     98 ccccccccc
(PID.TID 0000.0001) //     97 ccccccccc
(PID.TID 0000.0001) //     96 ccccccccc
(PID.TID 0000.0001) //     95 ccccccccc
(PID.TID 0000.0001) //     94 ccccccccc
(PID.TID 0000.0001) //     93 ccccccccc
(PID.TID 0000.0001) //     92 ccccccccc
(PID.TID 0000.0001) //     91 ccccccccc
(PID.TID 0000.0001) //     90 ccccccccc
(PID.TID 0000.0001) //     89 ccccccccc
(PID.TID 0000.0001) //     88 ccccccccc
(PID.TID 0000.0001) //     87 ccccccccc
(PID.TID 0000.0001) //     86 ccccccccc
(PID.TID 0000.0001) //     85 ccccccccc
(PID.TID 0000.0001) //     84 ccccccccc
(PID.TID 0000.0001) //     83 ccccccccc
(PID.TID 0000.0001) //     82 ccccccccc
(PID.TID 0000.0001) //     81 ccccccccc
(PID.TID 0000.0001) //     80 bbbbbbbbb
(PID.TID 0000.0001) //     79 bbbbbbbbb
(PID.TID 0000.0001) //     78 bbbbbbbbb
(PID.TID 0000.0001) //     77 bbbbbbbbb
(PID.TID 0000.0001) //     76 bbbbbbbbb
(PID.TID 0000.0001) //     75 bbbbbbbbb
(PID.TID 0000.0001) //     74 bbbbbbbbb
(PID.TID 0000.0001) //     73 bbbbbbbbb
(PID.TID 0000.0001) //     72 bbbbbbbbb
(PID.TID 0000.0001) //     71 bbbbbbbbb
(PID.TID 0000.0001) //     70 bbbbbbbbb
(PID.TID 0000.0001) //     69 bbbbbbbbb
(PID.TID 0000.0001) //     68 bbbbbbbbb
(PID.TID 0000.0001) //     67 bbbbbbbbb
(PID.TID 0000.0001) //     66 bbbbbbbbb
(PID.TID 0000.0001) //     65 bbbbbbbbb
(PID.TID 0000.0001) //     64 bbbbbbbbb
(PID.TID 0000.0001) //     63 bbbbbbbbb
(PID.TID 0000.0001) //     62 bbbbbbbbb
(PID.TID 0000.0001) //     61 bbbbbbbbb
(PID.TID 0000.0001) //     60 bbbbbbbbb
(PID.TID 0000.0001) //     59 bbbbbbbbb
(PID.TID 0000.0001) //     58 bbbbbbbbb
(PID.TID 0000.0001) //     57 bbbbbbbbb
(PID.TID 0000.0001) //     56 bbbbbbbbb
(PID.TID 0000.0001) //     55 bbbbbbbbb
(PID.TID 0000.0001) //     54 bbbbbbbbb
(PID.TID 0000.0001) //     53 bbbbbbbbb
(PID.TID 0000.0001) //     52 bbbbbbbbb
(PID.TID 0000.0001) //     51 bbbbbbbbb
(PID.TID 0000.0001) //     50 aaaaaaaaa
(PID.TID 0000.0001) //     49 aaaaaaaaa
(PID.TID 0000.0001) //     48 aaaaaaaaa
(PID.TID 0000.0001) //     47 aaaaaaaaa
(PID.TID 0000.0001) //     46 aaaaaaaaa
(PID.TID 0000.0001) //     45 aaaaaaaaa
(PID.TID 0000.0001) //     44 aaaaaaaaa
(PID.TID 0000.0001) //     43 aaaaaaaaa
(PID.TID 0000.0001) //     42 aaaaaaaaa
(PID.TID 0000.0001) //     41 aaaaaaaaa
(PID.TID 0000.0001) //     40 aaaaaaaaa
(PID.TID 0000.0001) //     39 aaaaaaaaa
(PID.TID 0000.0001) //     38 aaaaaaaaa
(PID.TID 0000.0001) //     37 aaaaaaaaa
(PID.TID 0000.0001) //     36 aaaaaaaaa
(PID.TID 0000.0001) //     35 aaaaaaaaa
(PID.TID 0000.0001) //     34 aaaaaaaaa
(PID.TID 0000.0001) //     33 aaaaaaaaa
(PID.TID 0000.0001) //     32 aaaaaaaaa
(PID.TID 0000.0001) //     31 aaaaaaaaa
(PID.TID 0000.0001) //     30 aaaaaaaaa
(PID.TID 0000.0001) //     29 aaaaaaaaa
(PID.TID 0000.0001) //     28 aaaaaaaaa
(PID.TID 0000.0001) //     27 aaaaaaaaa
(PID.TID 0000.0001) //     26 aaaaaaaaa
(PID.TID 0000.0001) //     25 aaaaaaaaa
(PID.TID 0000.0001) //     24 aaaaaaaaa
(PID.TID 0000.0001) //     23 aaaaaaaaa
(PID.TID 0000.0001) //     22 aaaaaaaaa
(PID.TID 0000.0001) //     21 aaaaaaaaa
(PID.TID 0000.0001) //     20 ---------
(PID.TID 0000.0001) //     19 ---------
(PID.TID 0000.0001) //     18 ---------
(PID.TID 0000.0001) //     17 ---------
(PID.TID 0000.0001) //     16 ---------
(PID.TID 0000.0001) //     15 ---------
(PID.TID 0000.0001) //     14 ---------
(PID.TID 0000.0001) //     13 ---------
(PID.TID 0000.0001) //     12 ---------
(PID.TID 0000.0001) //     11 ---------
(PID.TID 0000.0001) //     10 ---------
(PID.TID 0000.0001) //      9 ---------
(PID.TID 0000.0001) //      8 ---------
(PID.TID 0000.0001) //      7 ---------
(PID.TID 0000.0001) //      6 ---------
(PID.TID 0000.0001) //      5 ---------
(PID.TID 0000.0001) //      4 ---------
(PID.TID 0000.0001) //      3 ---------
(PID.TID 0000.0001) //      2 ---------
(PID.TID 0000.0001) //      1 .........
(PID.TID 0000.0001) //      0 .........
(PID.TID 0000.0001) //     -1 .........
(PID.TID 0000.0001) //     -2 .........
(PID.TID 0000.0001) // =======================================================
(PID.TID 0000.0001) // END OF FIELD                                          =
(PID.TID 0000.0001) // =======================================================
(PID.TID 0000.0001) 
(PID.TID 0000.0001) // =======================================================
(PID.TID 0000.0001) // Field hFacC at iteration          0
(PID.TID 0000.0001) // CMIN =          1.000000000000000E+00
(PID.TID 0000.0001) // CMAX =          1.000000000000000E+00
(PID.TID 0000.0001) // CINT =          0.000000000000000E+00
(PID.TID 0000.0001) // SYMBOLS (CMIN->CMAX): -abcdefghijklmnopqrstuvwxyz+
(PID.TID 0000.0001) //                  0.0: .
(PID.TID 0000.0001) // RANGE I (Lo:Hi:Step):(    -2:     6:     1)
(PID.TID 0000.0001) // RANGE J (Lo:Hi:Step):(   403:    -2:    -1)
(PID.TID 0000.0001) // RANGE K (Lo:Hi:Step):(   1:   1:   1)
(PID.TID 0000.0001) // =======================================================
(PID.TID 0000.0001) // =======================================================
(PID.TID 0000.0001) // END OF FIELD                                          =
(PID.TID 0000.0001) // =======================================================
(PID.TID 0000.0001) 
(PID.TID 0000.0001) // =======================================================
(PID.TID 0000.0001) // Field hFacW at iteration          0
(PID.TID 0000.0001) // CMIN =          1.000000000000000E+00
(PID.TID 0000.0001) // CMAX =          1.000000000000000E+00
(PID.TID 0000.0001) // CINT =          0.000000000000000E+00
(PID.TID 0000.0001) // SYMBOLS (CMIN->CMAX): -abcdefghijklmnopqrstuvwxyz+
(PID.TID 0000.0001) //                  0.0: .
(PID.TID 0000.0001) // RANGE I (Lo:Hi:Step):(    -2:     6:     1)
(PID.TID 0000.0001) // RANGE J (Lo:Hi:Step):(   403:    -2:    -1)
(PID.TID 0000.0001) // RANGE K (Lo:Hi:Step):(   1:   1:   1)
(PID.TID 0000.0001) // =======================================================
(PID.TID 0000.0001) // =======================================================
(PID.TID 0000.0001) // END OF FIELD                                          =
(PID.TID 0000.0001) // =======================================================
(PID.TID 0000.0001) 
(PID.TID 0000.0001) // =======================================================
(PID.TID 0000.0001) // Field hFacS at iteration          0
(PID.TID 0000.0001) // CMIN =          1.000000000000000E+00
(PID.TID 0000.0001) // CMAX =          1.000000000000000E+00
(PID.TID 0000.0001) // CINT =          0.000000000000000E+00
(PID.TID 0000.0001) // SYMBOLS (CMIN->CMAX): -abcdefghijklmnopqrstuvwxyz+
(PID.TID 0000.0001) //                  0.0: .
(PID.TID 0000.0001) // RANGE I (Lo:Hi:Step):(    -2:     6:     1)
(PID.TID 0000.0001) // RANGE J (Lo:Hi:Step):(   403:    -2:    -1)
(PID.TID 0000.0001) // RANGE K (Lo:Hi:Step):(   1:   1:   1)
(PID.TID 0000.0001) // =======================================================
(PID.TID 0000.0001) // =======================================================
(PID.TID 0000.0001) // END OF FIELD                                          =
(PID.TID 0000.0001) // =======================================================
(PID.TID 0000.0001) 
(PID.TID 0000.0001) GAD_INIT_FIXED: GAD_OlMinSize=  2  0  1
(PID.TID 0000.0001) 
(PID.TID 0000.0001) // ===================================
(PID.TID 0000.0001) // GAD parameters :
(PID.TID 0000.0001) // ===================================
(PID.TID 0000.0001) tempAdvScheme =   /* Temp. Horiz.Advection scheme selector */
(PID.TID 0000.0001)                      30
(PID.TID 0000.0001)     ;
(PID.TID 0000.0001) tempVertAdvScheme =   /* Temp. Vert. Advection scheme selector */
(PID.TID 0000.0001)                      30
(PID.TID 0000.0001)     ;
(PID.TID 0000.0001) tempMultiDimAdvec =   /* use Muti-Dim Advec method for Temp */
(PID.TID 0000.0001)                   T
(PID.TID 0000.0001)     ;
(PID.TID 0000.0001) tempSOM_Advection = /* use 2nd Order Moment Advection for Temp */
(PID.TID 0000.0001)                   F
(PID.TID 0000.0001)     ;
(PID.TID 0000.0001) AdamsBashforthGt = /* apply Adams-Bashforth extrapolation on Gt */
(PID.TID 0000.0001)                   F
(PID.TID 0000.0001)     ;
(PID.TID 0000.0001) AdamsBashforth_T = /* apply Adams-Bashforth extrapolation on Temp */
(PID.TID 0000.0001)                   F
(PID.TID 0000.0001)     ;
(PID.TID 0000.0001) saltAdvScheme =   /* Salt. Horiz.advection scheme selector */
(PID.TID 0000.0001)                      30
(PID.TID 0000.0001)     ;
(PID.TID 0000.0001) saltVertAdvScheme =   /* Salt. Vert. Advection scheme selector */
(PID.TID 0000.0001)                      30
(PID.TID 0000.0001)     ;
(PID.TID 0000.0001) saltMultiDimAdvec =   /* use Muti-Dim Advec method for Salt */
(PID.TID 0000.0001)                   T
(PID.TID 0000.0001)     ;
(PID.TID 0000.0001) saltSOM_Advection = /* use 2nd Order Moment Advection for Salt */
(PID.TID 0000.0001)                   F
(PID.TID 0000.0001)     ;
(PID.TID 0000.0001) AdamsBashforthGs = /* apply Adams-Bashforth extrapolation on Gs */
(PID.TID 0000.0001)                   F
(PID.TID 0000.0001)     ;
(PID.TID 0000.0001) AdamsBashforth_S = /* apply Adams-Bashforth extrapolation on Salt */
(PID.TID 0000.0001)                   F
(PID.TID 0000.0001)     ;
(PID.TID 0000.0001) // ===================================
(PID.TID 0000.0001)  MDS_READ_FIELD: opening global file: shelficemassinit.bin
(PID.TID 0000.0001) ADDED DIAGS TO LIST
(PID.TID 0000.0001)  MDS_READ_FIELD: opening global file: ufacemask3.box
(PID.TID 0000.0001)  MDS_READ_FIELD: opening global file: vfacemask3.box
(PID.TID 0000.0001)  MDS_READ_FIELD: opening global file: vmassflux3.box
(PID.TID 0000.0001)  MDS_READ_FIELD: opening global file: hmask3.box
(PID.TID 0000.0001) ------------------------------------------------------------
(PID.TID 0000.0001) DIAGNOSTICS_SET_LEVELS: done
(PID.TID 0000.0001)  Total Nb of available Diagnostics: ndiagt=   212
(PID.TID 0000.0001)  write list of available Diagnostics to file: available_diagnostics.log
(PID.TID 0000.0001) SETDIAG: Allocate  1 x  1 Levels for Diagnostic #    23 ETAN
(PID.TID 0000.0001) SETDIAG: Allocate  1 x  1 Levels for Diagnostic #    79 oceTAUX
(PID.TID 0000.0001) SETDIAG: Allocate  1 x  1 Levels for Diagnostic #    80 oceTAUY
(PID.TID 0000.0001) SETDIAG: Allocate  1 x  1 Levels for Diagnostic #    85 oceQnet
(PID.TID 0000.0001) SETDIAG: Allocate  1 x  1 Levels for Diagnostic #    83 oceFWflx
(PID.TID 0000.0001) SETDIAG: Allocate  1 x  1 Levels for Diagnostic #    76 MXLDEPTH
(PID.TID 0000.0001) SETDIAG: Allocate  1 x  1 Levels for Diagnostic #   187 SHIfwFlx
(PID.TID 0000.0001) SETDIAG: Allocate  1 x  1 Levels for Diagnostic #   188 SHIhtFlx
(PID.TID 0000.0001) SETDIAG: Allocate  1 x  1 Levels for Diagnostic #   193 SHIgammT
(PID.TID 0000.0001) SETDIAG: Allocate  1 x  1 Levels for Diagnostic #   194 SHIgammS
(PID.TID 0000.0001) SETDIAG: Allocate  1 x  1 Levels for Diagnostic #   196 SHI_mass
(PID.TID 0000.0001) SETDIAG: Allocate  1 x  1 Levels for Diagnostic #   195 SHIuStar
(PID.TID 0000.0001) SETDIAG: Allocate  1 x  1 Levels for Diagnostic #   197 SHIRshel
(PID.TID 0000.0001) SETDIAG: Allocate  1 x  1 Levels for Diagnostic #   198 SHI_MEff
(PID.TID 0000.0001) SETDIAG: Allocate130 x  1 Levels for Diagnostic #    30 UVEL
(PID.TID 0000.0001) SETDIAG: Allocate130 x  1 Levels for Diagnostic #    31 VVEL
(PID.TID 0000.0001) SETDIAG: Allocate130 x  1 Levels for Diagnostic #    32 WVEL
(PID.TID 0000.0001) SETDIAG: Allocate130 x  1 Levels for Diagnostic #    26 THETA
(PID.TID 0000.0001) SETDIAG: Allocate130 x  1 Levels for Diagnostic #    27 SALT
[...]
(PID.TID 0000.0001) // Begin MONITOR dynamic field statistics
(PID.TID 0000.0001) // =======================================================
(PID.TID 0000.0001) %MON time_tsnumber                =                  8652
(PID.TID 0000.0001) %MON time_secondsf                =   2.5956000000000E+06
(PID.TID 0000.0001) %MON dynstat_eta_max              =   2.4663949930542E+00
(PID.TID 0000.0001) %MON dynstat_eta_min              =  -7.4812583961223E+00
(PID.TID 0000.0001) %MON dynstat_eta_mean             =  -2.0372413779526E+00
(PID.TID 0000.0001) %MON dynstat_eta_sd               =   2.5444180713350E+00
(PID.TID 0000.0001) %MON dynstat_eta_del2             =   1.4380705780315E-01
(PID.TID 0000.0001) %MON dynstat_uvel_max             =   1.4205580548039E-13
(PID.TID 0000.0001) %MON dynstat_uvel_min             =  -1.6244405393107E-13
(PID.TID 0000.0001) %MON dynstat_uvel_mean            =   5.6277967430201E-27
(PID.TID 0000.0001) %MON dynstat_uvel_sd              =   1.5654463584877E-14
(PID.TID 0000.0001) %MON dynstat_uvel_del2            =   2.5223280918263E-16
(PID.TID 0000.0001) %MON dynstat_vvel_max             =   1.2240293163446E-01
(PID.TID 0000.0001) %MON dynstat_vvel_min             =  -5.1166414704156E-02
(PID.TID 0000.0001) %MON dynstat_vvel_mean            =  -6.4574656815112E-06
(PID.TID 0000.0001) %MON dynstat_vvel_sd              =   2.7928723669400E-02
(PID.TID 0000.0001) %MON dynstat_vvel_del2            =   8.6782462615118E-06
(PID.TID 0000.0001) %MON dynstat_wvel_max             =   4.5516859802257E-03
(PID.TID 0000.0001) %MON dynstat_wvel_min             =  -1.4494065581493E-03
(PID.TID 0000.0001) %MON dynstat_wvel_mean            =   3.9716739432322E-05
(PID.TID 0000.0001) %MON dynstat_wvel_sd              =   2.5268527724357E-04
(PID.TID 0000.0001) %MON dynstat_wvel_del2            =   1.6397469377764E-06
(PID.TID 0000.0001) %MON dynstat_theta_max            =   1.1967000000000E+00
(PID.TID 0000.0001) %MON dynstat_theta_min            =  -1.8900119949548E+00
(PID.TID 0000.0001) %MON dynstat_theta_mean           =  -4.1598512683743E-01
(PID.TID 0000.0001) %MON dynstat_theta_sd             =   6.6317322285571E-01
(PID.TID 0000.0001) %MON dynstat_theta_del2           =   1.9031803832932E-05
(PID.TID 0000.0001) %MON dynstat_salt_max             =   3.4696700000000E+01
(PID.TID 0000.0001) %MON dynstat_salt_min             =   3.3842102430741E+01
(PID.TID 0000.0001) %MON dynstat_salt_mean            =   3.4426669907633E+01
(PID.TID 0000.0001) %MON dynstat_salt_sd              =   1.0766147218526E-01
(PID.TID 0000.0001) %MON dynstat_salt_del2            =   9.0838939088092E-06
(PID.TID 0000.0001) %MON advcfl_uvel_max              =   1.3456753534014E-14
(PID.TID 0000.0001) %MON advcfl_vvel_max              =   4.2277202683678E-02
(PID.TID 0000.0001) %MON advcfl_wvel_max              =   1.3655057940677E-01
(PID.TID 0000.0001) %MON advcfl_W_hf_max              =   1.3655057940677E-01
(PID.TID 0000.0001) %MON pe_b_mean                    =  -1.8201562038417E+00
(PID.TID 0000.0001) %MON ke_max                       =   7.4171392975383E-03
(PID.TID 0000.0001) %MON ke_mean                      =   3.8873646865898E-04
(PID.TID 0000.0001) %MON ke_vol                       =   1.3244519864290E+12
(PID.TID 0000.0001) // =======================================================
(PID.TID 0000.0001) // End MONITOR dynamic field statistics
(PID.TID 0000.0001) // =======================================================
(PID.TID 0000.0001) // =======================================================
(PID.TID 0000.0001) // Begin OBCS MONITOR field statistics
(PID.TID 0000.0001) // =======================================================
(PID.TID 0000.0001) %MON obc_N_vVel_max               =   2.5000000000000E-02
(PID.TID 0000.0001) %MON obc_N_vVel_min               =  -2.5000000000000E-02
(PID.TID 0000.0001) %MON obc_N_vVel_mean              =   2.5511584080271E-18
(PID.TID 0000.0001) %MON obc_N_vVel_sd                =   1.4578823256425E-02
(PID.TID 0000.0001) %MON obc_N_vVel_Int               =   3.2287061912939E-11
(PID.TID 0000.0001) // =======================================================
(PID.TID 0000.0001) // End OBCS MONITOR field statistics
(PID.TID 0000.0001) // =======================================================
 Computing Diagnostic #     23  ETAN         Counter:       1   Parms: SM      M1      
 Computing Diagnostic #     79  oceTAUX      Counter:       1   Parms: UU      U1      
           Vector  Mate for  oceTAUX      Diagnostic #     80  oceTAUY  exists 
 Computing Diagnostic #     80  oceTAUY      Counter:       1   Parms: VV      U1      
           Vector  Mate for  oceTAUY      Diagnostic #     79  oceTAUX  exists 
 Computing Diagnostic #     85  oceQnet      Counter:       1   Parms: SM      U1      
 Computing Diagnostic #     83  oceFWflx     Counter:       1   Parms: SM      U1      
 Computing Diagnostic #     76  MXLDEPTH     Counter:       1   Parms: SM      M1      
 Computing Diagnostic #    187  SHIfwFlx     Counter:       1   Parms: SM      L1      
 Computing Diagnostic #    188  SHIhtFlx     Counter:       1   Parms: SM      L1      
 Computing Diagnostic #    193  SHIgammT     Counter:       1   Parms: SM      L1      
 Computing Diagnostic #    194  SHIgammS     Counter:       1   Parms: SM      L1      
 Computing Diagnostic #    196  SHI_mass     Counter:       1   Parms: SM      L1      
 Computing Diagnostic #    195  SHIuStar     Counter:       1   Parms: SM      L1      
 Computing Diagnostic #    197  SHIRshel     Counter:       1   Parms: SM      L1      
 Computing Diagnostic #    198  SHI_MEff     Counter:       1   Parms: SM      L1      
 Computing Diagnostic #     30  UVEL         Counter:       1   Parms: UUR     MR      
           Vector  Mate for  UVEL         Diagnostic #     31  VVEL     exists 
 Computing Diagnostic #     31  VVEL         Counter:       1   Parms: VVR     MR      
           Vector  Mate for  VVEL         Diagnostic #     30  UVEL     exists 
 Computing Diagnostic #     32  WVEL         Counter:       1   Parms: WM      LR      
 Computing Diagnostic #     26  THETA        Counter:       1   Parms: SMR     MR      
 Computing Diagnostic #     27  SALT         Counter:       1   Parms: SMR     MR      
 Computing Diagnostic #     64  RHOAnoma     Counter:       1   Parms: SMR     MR      
 Computing Diagnostic #     78  CONVADJ      Counter:       1   Parms: SMR     LR      
 Computing Diagnostic #    199  SI_Uvel      Counter:       1   Parms: UZ      L1      
 Computing Diagnostic #    200  SI_Vvel      Counter:       1   Parms: VZ      L1      
 Computing Diagnostic #    201  SI_Thick     Counter:       1   Parms: SM      L1      
 Computing Diagnostic #    204  SI_hmask     Counter:       1   Parms: SM      L1      
 Computing Diagnostic #    203  SI_float     Counter:       1   Parms: SM      L1      
(PID.TID 0000.0001) %CHECKPOINT      8652 ckptA
(PID.TID 0000.0001)   Seconds in section "ALL                    [THE_MODEL_MAIN]":
(PID.TID 0000.0001)           User time:    12.01999950408936
(PID.TID 0000.0001)         System time:   0.3899999763816595
(PID.TID 0000.0001)     Wall clock time:    13.89902806282043
(PID.TID 0000.0001)          No. starts:            1
(PID.TID 0000.0001)           No. stops:            1
(PID.TID 0000.0001)   Seconds in section "INITIALISE_FIXED       [THE_MODEL_MAIN]":
(PID.TID 0000.0001)           User time:   7.9999998211860657E-002
(PID.TID 0000.0001)         System time:   6.0000000521540642E-002
(PID.TID 0000.0001)     Wall clock time:   0.4519901275634766
(PID.TID 0000.0001)          No. starts:            1
(PID.TID 0000.0001)           No. stops:            1
(PID.TID 0000.0001)   Seconds in section "THE_MAIN_LOOP          [THE_MODEL_MAIN]":
(PID.TID 0000.0001)           User time:    11.93999950587749
(PID.TID 0000.0001)         System time:   0.3299999758601189
(PID.TID 0000.0001)     Wall clock time:    13.44697403907776
(PID.TID 0000.0001)          No. starts:            1
(PID.TID 0000.0001)           No. stops:            1
(PID.TID 0000.0001)   Seconds in section "INITIALISE_VARIA    [THE_MAIN_LOOP]":
(PID.TID 0000.0001)           User time:   0.1599999964237213
(PID.TID 0000.0001)         System time:   7.0000000298023224E-002
(PID.TID 0000.0001)     Wall clock time:    1.081596136093140
(PID.TID 0000.0001)          No. starts:            1
(PID.TID 0000.0001)           No. stops:            1
(PID.TID 0000.0001)   Seconds in section "MAIN LOOP           [THE_MAIN_LOOP]":
(PID.TID 0000.0001)           User time:    11.77999950945377
(PID.TID 0000.0001)         System time:   0.2599999755620956
(PID.TID 0000.0001)     Wall clock time:    12.36532616615295
(PID.TID 0000.0001)          No. starts:            1
(PID.TID 0000.0001)           No. stops:            1
(PID.TID 0000.0001)   Seconds in section "MAIN_DO_LOOP        [THE_MAIN_LOOP]":
(PID.TID 0000.0001)           User time:    11.77999950945377
(PID.TID 0000.0001)         System time:   0.2599999755620956
(PID.TID 0000.0001)     Wall clock time:    12.36510825157166
(PID.TID 0000.0001)          No. starts:           12
(PID.TID 0000.0001)           No. stops:           12
(PID.TID 0000.0001)   Seconds in section "FORWARD_STEP        [MAIN_DO_LOOP]":
(PID.TID 0000.0001)           User time:    11.77999950945377
(PID.TID 0000.0001)         System time:   0.2499999701976776
(PID.TID 0000.0001)     Wall clock time:    12.36470293998718
(PID.TID 0000.0001)          No. starts:           12
(PID.TID 0000.0001)           No. stops:           12
(PID.TID 0000.0001)   Seconds in section "SHELFICE_REMESHING     [FORWARD_STEP]":
(PID.TID 0000.0001)           User time:   0.1100001335144043
(PID.TID 0000.0001)         System time:    0.000000000000000
(PID.TID 0000.0001)     Wall clock time:   0.1132540702819824
(PID.TID 0000.0001)          No. starts:           12
(PID.TID 0000.0001)           No. stops:           12
(PID.TID 0000.0001)   Seconds in section "DO_STATEVARS_DIAGS  [FORWARD_STEP]":
(PID.TID 0000.0001)           User time:   8.0000638961791992E-002
(PID.TID 0000.0001)         System time:    0.000000000000000
(PID.TID 0000.0001)     Wall clock time:   9.1829299926757812E-002
(PID.TID 0000.0001)          No. starts:           36
(PID.TID 0000.0001)           No. stops:           36
(PID.TID 0000.0001)   Seconds in section "LOAD_FIELDS_DRIVER  [FORWARD_STEP]":
(PID.TID 0000.0001)           User time:    0.000000000000000
(PID.TID 0000.0001)         System time:    0.000000000000000
(PID.TID 0000.0001)     Wall clock time:   9.0456008911132812E-004
(PID.TID 0000.0001)          No. starts:           12
(PID.TID 0000.0001)           No. stops:           12
(PID.TID 0000.0001)   Seconds in section "EXTERNAL_FLDS_LOAD [LOAD_FLDS_DRIVER]":
(PID.TID 0000.0001)           User time:    0.000000000000000
(PID.TID 0000.0001)         System time:    0.000000000000000
(PID.TID 0000.0001)     Wall clock time:   3.0326843261718750E-004
(PID.TID 0000.0001)          No. starts:           12
(PID.TID 0000.0001)           No. stops:           12
(PID.TID 0000.0001)   Seconds in section "DO_ATMOSPHERIC_PHYS [FORWARD_STEP]":
(PID.TID 0000.0001)           User time:    0.000000000000000
(PID.TID 0000.0001)         System time:    0.000000000000000
(PID.TID 0000.0001)     Wall clock time:   2.8395652770996094E-004
(PID.TID 0000.0001)          No. starts:           12
(PID.TID 0000.0001)           No. stops:           12
(PID.TID 0000.0001)   Seconds in section "DO_OCEANIC_PHYS     [FORWARD_STEP]":
(PID.TID 0000.0001)           User time:    1.749998584389687
(PID.TID 0000.0001)         System time:    0.000000000000000
(PID.TID 0000.0001)     Wall clock time:    1.742554903030396
(PID.TID 0000.0001)          No. starts:           12
(PID.TID 0000.0001)           No. stops:           12
(PID.TID 0000.0001)   Seconds in section "SHELFICE_THERMODYNAMICS [DO_OCEANIC_PHYS]":
(PID.TID 0000.0001)           User time:   2.0000219345092773E-002
(PID.TID 0000.0001)         System time:    0.000000000000000
(PID.TID 0000.0001)     Wall clock time:   1.1866092681884766E-002
(PID.TID 0000.0001)          No. starts:           12
(PID.TID 0000.0001)           No. stops:           12
(PID.TID 0000.0001)   Seconds in section "STREAMICE_TIMESTEP [FORWARD_STEP]":
(PID.TID 0000.0001)           User time:   0.1999999880790710
(PID.TID 0000.0001)         System time:    0.000000000000000
(PID.TID 0000.0001)     Wall clock time:   0.1942703723907471
(PID.TID 0000.0001)          No. starts:           12
(PID.TID 0000.0001)           No. stops:           12
(PID.TID 0000.0001)   Seconds in section "STREAMICE_VEL_SOLVE":
(PID.TID 0000.0001)           User time:   0.1800000071525574
(PID.TID 0000.0001)         System time:    0.000000000000000
(PID.TID 0000.0001)     Wall clock time:   0.1836240291595459
(PID.TID 0000.0001)          No. starts:            1
(PID.TID 0000.0001)           No. stops:            1
(PID.TID 0000.0001)   Seconds in section "STREAMICE_CG_SOLVE":
(PID.TID 0000.0001)           User time:   0.1200000345706940
(PID.TID 0000.0001)         System time:    0.000000000000000
(PID.TID 0000.0001)     Wall clock time:   0.1207389831542969
(PID.TID 0000.0001)          No. starts:            1
(PID.TID 0000.0001)           No. stops:            1
(PID.TID 0000.0001)   Seconds in section "STREAMICE_ADVECT_THICKNESS":
(PID.TID 0000.0001)           User time:   1.9999980926513672E-002
(PID.TID 0000.0001)         System time:    0.000000000000000
(PID.TID 0000.0001)     Wall clock time:   5.4249763488769531E-003
(PID.TID 0000.0001)          No. starts:           12
(PID.TID 0000.0001)           No. stops:           12
(PID.TID 0000.0001)   Seconds in section "DYNAMICS            [FORWARD_STEP]":
(PID.TID 0000.0001)           User time:    3.590001404285431
(PID.TID 0000.0001)         System time:   9.9999904632568359E-003
(PID.TID 0000.0001)     Wall clock time:    3.607323646545410
(PID.TID 0000.0001)          No. starts:           12
(PID.TID 0000.0001)           No. stops:           12
(PID.TID 0000.0001)   Seconds in section "UPDATE_SURF_DR      [FORWARD_STEP]":
(PID.TID 0000.0001)           User time:    0.000000000000000
(PID.TID 0000.0001)         System time:    0.000000000000000
(PID.TID 0000.0001)     Wall clock time:   2.1383762359619141E-003
(PID.TID 0000.0001)          No. starts:           12
(PID.TID 0000.0001)           No. stops:           12
(PID.TID 0000.0001)   Seconds in section "UPDATE_CG2D         [FORWARD_STEP]":
(PID.TID 0000.0001)           User time:   1.9999742507934570E-002
(PID.TID 0000.0001)         System time:    0.000000000000000
(PID.TID 0000.0001)     Wall clock time:   3.3208847045898438E-002
(PID.TID 0000.0001)          No. starts:           12
(PID.TID 0000.0001)           No. stops:           12
(PID.TID 0000.0001)   Seconds in section "SOLVE_FOR_PRESSURE  [FORWARD_STEP]":
(PID.TID 0000.0001)           User time:   0.1700007915496826
(PID.TID 0000.0001)         System time:    0.000000000000000
(PID.TID 0000.0001)     Wall clock time:   0.1636021137237549
(PID.TID 0000.0001)          No. starts:           12
(PID.TID 0000.0001)           No. stops:           12
(PID.TID 0000.0001)   Seconds in section "MOM_CORRECTION_STEP [FORWARD_STEP]":
(PID.TID 0000.0001)           User time:   6.9999098777770996E-002
(PID.TID 0000.0001)         System time:    0.000000000000000
(PID.TID 0000.0001)     Wall clock time:   6.1725378036499023E-002
(PID.TID 0000.0001)          No. starts:           12
(PID.TID 0000.0001)           No. stops:           12
(PID.TID 0000.0001)   Seconds in section "INTEGR_CONTINUITY   [FORWARD_STEP]":
(PID.TID 0000.0001)           User time:   0.1599996089935303
(PID.TID 0000.0001)         System time:    0.000000000000000
(PID.TID 0000.0001)     Wall clock time:   0.1611537933349609
(PID.TID 0000.0001)          No. starts:           12
(PID.TID 0000.0001)           No. stops:           12
(PID.TID 0000.0001)   Seconds in section "CALC_SURF_DR      [FORWARD_STEP]":
(PID.TID 0000.0001)           User time:   1.0000228881835938E-002
(PID.TID 0000.0001)         System time:    0.000000000000000
(PID.TID 0000.0001)     Wall clock time:   7.0858001708984375E-003
(PID.TID 0000.0001)          No. starts:           12
(PID.TID 0000.0001)           No. stops:           12
(PID.TID 0000.0001)   Seconds in section "BLOCKING_EXCHANGES  [FORWARD_STEP]":
(PID.TID 0000.0001)           User time:   0.2100007534027100
(PID.TID 0000.0001)         System time:    0.000000000000000
(PID.TID 0000.0001)     Wall clock time:   0.2087295055389404
(PID.TID 0000.0001)          No. starts:           24
(PID.TID 0000.0001)           No. stops:           24
(PID.TID 0000.0001)   Seconds in section "THERMODYNAMICS      [FORWARD_STEP]":
(PID.TID 0000.0001)           User time:    3.249998688697815
(PID.TID 0000.0001)         System time:   3.0000001192092896E-002
(PID.TID 0000.0001)     Wall clock time:    3.278277635574341
(PID.TID 0000.0001)          No. starts:           12
(PID.TID 0000.0001)           No. stops:           12
(PID.TID 0000.0001)   Seconds in section "TRC_CORRECTION_STEP [FORWARD_STEP]":
(PID.TID 0000.0001)           User time:    1.180000662803650
(PID.TID 0000.0001)         System time:    0.000000000000000
(PID.TID 0000.0001)     Wall clock time:    1.171935796737671
(PID.TID 0000.0001)          No. starts:           12
(PID.TID 0000.0001)           No. stops:           12
(PID.TID 0000.0001)   Seconds in section "MONITOR             [FORWARD_STEP]":
(PID.TID 0000.0001)           User time:   0.3999991416931152
(PID.TID 0000.0001)         System time:    0.000000000000000
(PID.TID 0000.0001)     Wall clock time:   0.3941965103149414
(PID.TID 0000.0001)          No. starts:           12
(PID.TID 0000.0001)           No. stops:           12
(PID.TID 0000.0001)   Seconds in section "DO_THE_MODEL_IO     [FORWARD_STEP]":
(PID.TID 0000.0001)           User time:   0.5500003099441528
(PID.TID 0000.0001)         System time:   0.1999999880790710
(PID.TID 0000.0001)     Wall clock time:    1.039096117019653
(PID.TID 0000.0001)          No. starts:           12
(PID.TID 0000.0001)           No. stops:           12
(PID.TID 0000.0001)   Seconds in section "DO_WRITE_PICKUP     [FORWARD_STEP]":
(PID.TID 0000.0001)           User time:   2.9999732971191406E-002
(PID.TID 0000.0001)         System time:   9.9999904632568359E-003
(PID.TID 0000.0001)     Wall clock time:   8.7955236434936523E-002
(PID.TID 0000.0001)          No. starts:           12
(PID.TID 0000.0001)           No. stops:           12
(PID.TID 0000.0001) // ======================================================
(PID.TID 0000.0001) // Tile <-> Tile communication statistics
(PID.TID 0000.0001) // ======================================================
(PID.TID 0000.0001) // o Tile number: 000001
(PID.TID 0000.0001) //         No. X exchanges =              0
(PID.TID 0000.0001) //            Max. X spins =              0
(PID.TID 0000.0001) //            Min. X spins =     1000000000
(PID.TID 0000.0001) //          Total. X spins =              0
(PID.TID 0000.0001) //            Avg. X spins =       0.00E+00
(PID.TID 0000.0001) //         No. Y exchanges =              0
(PID.TID 0000.0001) //            Max. Y spins =              0
(PID.TID 0000.0001) //            Min. Y spins =     1000000000
(PID.TID 0000.0001) //          Total. Y spins =              0
(PID.TID 0000.0001) //            Avg. Y spins =       0.00E+00
(PID.TID 0000.0001) // o Thread number: 000001
(PID.TID 0000.0001) //            No. barriers =          43592
(PID.TID 0000.0001) //      Max. barrier spins =              1
(PID.TID 0000.0001) //      Min. barrier spins =              1
(PID.TID 0000.0001) //     Total barrier spins =          43592
(PID.TID 0000.0001) //      Avg. barrier spins =       1.00E+00
PROGRAM MAIN: Execution ended Normally
