(PID.TID 0000.0001) 
(PID.TID 0000.0001) // ======================================================
(PID.TID 0000.0001) //                      MITgcm UV
(PID.TID 0000.0001) //                      =========
(PID.TID 0000.0001) // ======================================================
(PID.TID 0000.0001) // execution environment starting up...
(PID.TID 0000.0001) 
(PID.TID 0000.0001) // MITgcmUV version:  checkpoint65r
(PID.TID 0000.0001) // Build user:        gforget
(PID.TID 0000.0001) // Build host:        GLACIER2.MIT.EDU
(PID.TID 0000.0001) // Build date:        Mon Dec 28 13:39:22 EST 2015
(PID.TID 0000.0001) 
(PID.TID 0000.0001) // =======================================================
(PID.TID 0000.0001) // Execution Environment parameter file "eedata"
(PID.TID 0000.0001) // =======================================================
(PID.TID 0000.0001) ># Example "eedata" file
(PID.TID 0000.0001) ># Lines beginning "#" are comments
(PID.TID 0000.0001) ># nTx - No. threads per process in X
(PID.TID 0000.0001) ># nTy - No. threads per process in Y
(PID.TID 0000.0001) > &EEPARMS
(PID.TID 0000.0001) > useCubedSphereExchange=.TRUE.,
(PID.TID 0000.0001) > nTx=1,
(PID.TID 0000.0001) > nTy=1,
(PID.TID 0000.0001) > /
(PID.TID 0000.0001) ># Note: Some systems use & as the
(PID.TID 0000.0001) ># namelist terminator. Other systems
(PID.TID 0000.0001) ># use a / character (as shown here).
(PID.TID 0000.0001) 
(PID.TID 0000.0001) // =======================================================
(PID.TID 0000.0001) // Computational Grid Specification ( see files "SIZE.h" )
(PID.TID 0000.0001) //                                  ( and "eedata"       )
(PID.TID 0000.0001) // =======================================================
(PID.TID 0000.0001)      nPx =   24 ; /* No. processes in X */
(PID.TID 0000.0001)      nPy =    1 ; /* No. processes in Y */
(PID.TID 0000.0001)      nSx =    1 ; /* No. tiles in X per process */
(PID.TID 0000.0001)      nSy =    1 ; /* No. tiles in Y per process */
(PID.TID 0000.0001)      sNx =   16 ; /* Tile size in X */
(PID.TID 0000.0001)      sNy =   16 ; /* Tile size in Y */
(PID.TID 0000.0001)      OLx =    4 ; /* Tile overlap distance in X */
(PID.TID 0000.0001)      OLy =    4 ; /* Tile overlap distance in Y */
(PID.TID 0000.0001)      nTx =    1 ; /* No. threads in X per process */
(PID.TID 0000.0001)      nTy =    1 ; /* No. threads in Y per process */
(PID.TID 0000.0001)       Nr =   50 ; /* No. levels in the vertical   */
(PID.TID 0000.0001)       Nx =  384 ; /* Total domain size in X ( = nPx*nSx*sNx ) */
(PID.TID 0000.0001)       Ny =   16 ; /* Total domain size in Y ( = nPy*nSy*sNy ) */
(PID.TID 0000.0001)   nTiles =    1 ; /* Total no. tiles per process ( = nSx*nSy ) */
(PID.TID 0000.0001)   nProcs =   24 ; /* Total no. processes ( = nPx*nPy ) */
(PID.TID 0000.0001) nThreads =    1 ; /* Total no. threads per process ( = nTx*nTy ) */
(PID.TID 0000.0001) usingMPI =    T ; /* Flag used to control whether MPI is in use */
(PID.TID 0000.0001)                   /*  note: To execute a program with MPI calls */
(PID.TID 0000.0001)                   /*  it must be launched appropriately e.g     */
(PID.TID 0000.0001)                   /*  "mpirun -np 64 ......"                    */
(PID.TID 0000.0001) useCoupler=    F ;/* Flag used to control communications with   */
(PID.TID 0000.0001)                   /*  other model components, through a coupler */
(PID.TID 0000.0001) debugMode =    F ; /* print debug msg. (sequence of S/R calls)  */
(PID.TID 0000.0001) printMapIncludesZeros=    F ; /* print zeros in Std.Output maps */
(PID.TID 0000.0001) maxLengthPrt1D=   65 /* maxLength of 1D array printed to StdOut */
(PID.TID 0000.0001) 
(PID.TID 0000.0001) ======= Starting MPI parallel Run =========
(PID.TID 0000.0001)  My Processor Name (len: 16 ) = GLACIER2.MIT.EDU
(PID.TID 0000.0001)  Located at (  0,  0) on processor grid (0: 23,0:  0)
(PID.TID 0000.0001)  Origin at  (     1,     1) on global grid (1:   384,1:    16)
(PID.TID 0000.0001)  North neighbor = processor 0000
(PID.TID 0000.0001)  South neighbor = processor 0000
(PID.TID 0000.0001)   East neighbor = processor 0001
(PID.TID 0000.0001)   West neighbor = processor 0023
(PID.TID 0000.0001) // ======================================================
(PID.TID 0000.0001) // Mapping of tiles to threads
(PID.TID 0000.0001) // ======================================================
(PID.TID 0000.0001) // -o- Thread   1, tiles (   1:   1,   1:   1)
(PID.TID 0000.0001) 
(PID.TID 0000.0001) W2_READPARMS: opening data.exch2
(PID.TID 0000.0001)  OPEN_COPY_DATA_FILE: opening file data.exch2
(PID.TID 0000.0001) // =======================================================
(PID.TID 0000.0001) // Parameter file "data.exch2"
(PID.TID 0000.0001) // =======================================================
(PID.TID 0000.0001) ># EXCH2 Package: Wrapper-2 User Choice
(PID.TID 0000.0001) >#--------------------
(PID.TID 0000.0001) >#  preDefTopol   :: pre-defined Topology selector:
(PID.TID 0000.0001) >#                :: = 0 : topology defined from processing "data.exch2";
(PID.TID 0000.0001) >#                :: = 1 : simple, single facet topology;
(PID.TID 0000.0001) >#                :: = 2 : customized topology (w2_set_myown_facets)
(PID.TID 0000.0001) >#                :: = 3 : 6-facet Cube (3 face-dims: nRed, nGreen, nBlue).
(PID.TID 0000.0001) >#  dimsFacets    :: facet pair of dimensions (n1x,n1y, n2x,n2y ...)
(PID.TID 0000.0001) >#  facetEdgeLink :: Face-Edge connectivity map:
(PID.TID 0000.0001) >#    facetEdgeLink(i,j)=XX.1 : face(j)-edge(i) (i=1,2,3,4 <==> N,S,E,W)
(PID.TID 0000.0001) >#    is connected to Northern edge of face "XX" ; similarly,
(PID.TID 0000.0001) >#    = XX.2 : to Southern.E, XX.3 = Eastern.E, XX.4 = Western.E of face "XX"
(PID.TID 0000.0001) >#  blankList     :: List of "blank" tiles
(PID.TID 0000.0001) >#  W2_mapIO      :: global map IO selector (-1 = old type ; 0 = 1 long line in X
(PID.TID 0000.0001) >#                :: 1 = compact, mostly in Y dir)
(PID.TID 0000.0001) >#  W2_printMsg   :: option for information messages printing
(PID.TID 0000.0001) >#                :: <0 : write to log file ; =0 : minimum print ;
(PID.TID 0000.0001) >#                :: =1 : no duplicated print ; =2 : all processes do print
(PID.TID 0000.0001) >#--------------------
(PID.TID 0000.0001) > &W2_EXCH2_PARM01
(PID.TID 0000.0001) ># W2_printMsg= 0,
(PID.TID 0000.0001) >  W2_mapIO   = 1,
(PID.TID 0000.0001) >  preDefTopol=0,
(PID.TID 0000.0001) >  dimsFacets(1:12) = 32, 32, 32, 32, 32, 32, 32, 32, 32, 32, 32, 32,
(PID.TID 0000.0001) >  facetEdgeLink(1:4,1)= 3.4, 6.1, 2.4, 5.1,
(PID.TID 0000.0001) >  facetEdgeLink(1:4,2)= 3.2, 6.3, 4.2, 1.3,
(PID.TID 0000.0001) >  facetEdgeLink(1:4,3)= 5.4, 2.1, 4.4, 1.1,
(PID.TID 0000.0001) >  facetEdgeLink(1:4,4)= 5.2, 2.3, 6.2, 3.3,
(PID.TID 0000.0001) >  facetEdgeLink(1:4,5)= 1.4, 4.1, 6.4, 3.1,
(PID.TID 0000.0001) >  facetEdgeLink(1:4,6)= 1.2, 4.3, 2.2, 5.3,
(PID.TID 0000.0001) >#when using bathy_north.bin:
(PID.TID 0000.0001) >#  blankList=1,2,5,6,14,16,18,20,21,22,23,24,
(PID.TID 0000.0001) >#when using bathy_south.bin:
(PID.TID 0000.0001) ># blankList=3,4,7,8,9,10,11,12,13,15,17,19,
(PID.TID 0000.0001) > /
(PID.TID 0000.0001) 
(PID.TID 0000.0001) W2_READPARMS: finished reading data.exch2
(PID.TID 0000.0001) W2_useE2ioLayOut=    T ;/* T: use Exch2 glob IO map; F: use model default */
(PID.TID 0000.0001) W2_mapIO        =   1 ; /* select option for Exch2 global-IO map */
(PID.TID 0000.0001) W2_printMsg     =  -1 ; /* select option for printing information */
(PID.TID 0000.0001) ===== Start setting W2 TOPOLOGY:
(PID.TID 0000.0001)  write to log-file: w2_tile_topology.0000.log
(PID.TID 0000.0001) =====       setting W2 TOPOLOGY: Done
(PID.TID 0000.0001) 
(PID.TID 0000.0001)  INI_PARMS: opening model parameter file "data"
(PID.TID 0000.0001)  OPEN_COPY_DATA_FILE: opening file data
(PID.TID 0000.0001) // =======================================================
(PID.TID 0000.0001) // Parameter file "data"
(PID.TID 0000.0001) // =======================================================
(PID.TID 0000.0001) ># ====================
(PID.TID 0000.0001) ># | Model parameters |
(PID.TID 0000.0001) ># ====================
(PID.TID 0000.0001) >#
(PID.TID 0000.0001) ># Continuous equation parameters
(PID.TID 0000.0001) > &PARM01
(PID.TID 0000.0001) > tRef               = 3*23.,3*22.,21.,2*20.,19.,2*18.,17.,2*16.,15.,14.,13.,
(PID.TID 0000.0001) >                      12.,11.,2*9.,8.,7.,2*6.,2*5.,3*4.,3*3.,4*2.,12*1.,
(PID.TID 0000.0001) > sRef               = 50*34.5,
(PID.TID 0000.0001) > no_slip_sides  = .TRUE.,
(PID.TID 0000.0001) > no_slip_bottom = .TRUE.,
(PID.TID 0000.0001) >#
(PID.TID 0000.0001) > viscAr=1.E-3,
(PID.TID 0000.0001) >#
(PID.TID 0000.0001) > viscAh=1.E0,
(PID.TID 0000.0001) > viscAhGrid=2.E-2,
(PID.TID 0000.0001) ># viscAh=2.0e4,
(PID.TID 0000.0001) >#
(PID.TID 0000.0001) > diffKhT=1.E1,
(PID.TID 0000.0001) > diffKrT=1.E-5,
(PID.TID 0000.0001) > diffKhS=1.E1,
(PID.TID 0000.0001) > diffKrS=1.E-5,
(PID.TID 0000.0001) >#
(PID.TID 0000.0001) >### diffKrBL79surf=0.1E-4,
(PID.TID 0000.0001) >### diffKrBL79deep=1.0E-4,
(PID.TID 0000.0001) > bottomDragQuadratic = 0.001,
(PID.TID 0000.0001) >#when using ggl90
(PID.TID 0000.0001) > ivdc_kappa=10.,
(PID.TID 0000.0001) > implicitDiffusion=.TRUE.,
(PID.TID 0000.0001) > implicitViscosity=.TRUE.,
(PID.TID 0000.0001) > useRealFreshWaterFlux=.TRUE.,
(PID.TID 0000.0001) ># balanceThetaClimRelax=.TRUE.,
(PID.TID 0000.0001) > balanceSaltClimRelax=.TRUE.,
(PID.TID 0000.0001) > balanceEmPmR=.TRUE.,
(PID.TID 0000.0001) ># balanceQnet=.TRUE.,
(PID.TID 0000.0001) > allowFreezing=.FALSE.,
(PID.TID 0000.0001) >### hFacInf=0.2,
(PID.TID 0000.0001) >### hFacSup=2.0,
(PID.TID 0000.0001) > hFacMin=.2,
(PID.TID 0000.0001) > hFacMinDr=5.,
(PID.TID 0000.0001) > select_rStar=2,
(PID.TID 0000.0001) > nonlinFreeSurf=4,
(PID.TID 0000.0001) > gravity=9.81,
(PID.TID 0000.0001) > rhonil=1029.,
(PID.TID 0000.0001) > rhoConst=1029.,
(PID.TID 0000.0001) > rhoConstFresh=1000.,
(PID.TID 0000.0001) > convertFW2Salt=-1.,
(PID.TID 0000.0001) > eosType='JMD95Z',
(PID.TID 0000.0001) > implicitFreeSurface=.TRUE.,
(PID.TID 0000.0001) > exactConserv=.TRUE.,
(PID.TID 0000.0001) > useSingleCpuIO=.TRUE.,
(PID.TID 0000.0001) >#useSingleCpuIO=.FALSE.,
(PID.TID 0000.0001) > tempAdvScheme=33,
(PID.TID 0000.0001) > saltAdvScheme=33,
(PID.TID 0000.0001) > staggerTimeStep=.TRUE.,
(PID.TID 0000.0001) > vectorInvariantMomentum=.TRUE.,
(PID.TID 0000.0001) >#when using the cd scheme:
(PID.TID 0000.0001) ># useCDscheme=.TRUE.,
(PID.TID 0000.0001) > useJamartWetPoints=.TRUE.,
(PID.TID 0000.0001) > readBinaryPrec=32,
(PID.TID 0000.0001) > writeBinaryPrec=32,
(PID.TID 0000.0001) > debugLevel=1,
(PID.TID 0000.0001) > /
(PID.TID 0000.0001) >
(PID.TID 0000.0001) ># Elliptic solver parameters
(PID.TID 0000.0001) > &PARM02
(PID.TID 0000.0001) > cg2dMaxIters=300,
(PID.TID 0000.0001) > cg2dTargetResWunit=1.E-12,
(PID.TID 0000.0001) > /
(PID.TID 0000.0001) >
(PID.TID 0000.0001) ># Time stepping parameters
(PID.TID 0000.0001) > &PARM03
(PID.TID 0000.0001) > nIter0=0,
(PID.TID 0000.0001) >#2 lev2 for testing:
(PID.TID 0000.0001) > nTimeSteps=8,
(PID.TID 0000.0001) >#60 years with 1h dt
(PID.TID 0000.0001) >#nTimeSteps=525985,
(PID.TID 0000.0001) >#
(PID.TID 0000.0001) > forcing_In_AB=.FALSE.,
(PID.TID 0000.0001) > momDissip_In_AB=.FALSE.,
(PID.TID 0000.0001) >#when using the cd scheme:
(PID.TID 0000.0001) ># epsAB_CD = 0.25,
(PID.TID 0000.0001) ># tauCD=172800.0,
(PID.TID 0000.0001) > deltaTmom   =3600.,
(PID.TID 0000.0001) > deltaTtracer=3600.,
(PID.TID 0000.0001) > deltaTfreesurf=3600.,
(PID.TID 0000.0001) > deltaTClock =3600.,
(PID.TID 0000.0001) >#when using ab2:
(PID.TID 0000.0001) ># abEps = 0.1,
(PID.TID 0000.0001) >#when using ab3:
(PID.TID 0000.0001) > doAB_onGtGs=.FALSE.,
(PID.TID 0000.0001) > alph_AB=0.5,
(PID.TID 0000.0001) > beta_AB=0.281105,
(PID.TID 0000.0001) >#
(PID.TID 0000.0001) > pChkptFreq  =31536000.0,
(PID.TID 0000.0001) > chkptFreq   =31536000.0,
(PID.TID 0000.0001) ># taveFreq    =31536000.0,
(PID.TID 0000.0001) ># dumpFreq    =31536000.0,
(PID.TID 0000.0001) > monitorFreq = 3600.0,
(PID.TID 0000.0001) > dumpInitAndLast = .TRUE.,
(PID.TID 0000.0001) > adjMonitorFreq = 864000.0,
(PID.TID 0000.0001) > pickupStrictlyMatch=.FALSE.,
(PID.TID 0000.0001) > /
(PID.TID 0000.0001) >
(PID.TID 0000.0001) ># Gridding parameters
(PID.TID 0000.0001) > &PARM04
(PID.TID 0000.0001) > horizGridFile='grid_cs32',
(PID.TID 0000.0001) > usingCurvilinearGrid=.TRUE.,
(PID.TID 0000.0001) > delR =
(PID.TID 0000.0001) >     10.00, 10.00, 10.00, 10.00, 10.00, 10.00, 10.00, 10.01,
(PID.TID 0000.0001) >     10.03, 10.11, 10.32, 10.80, 11.76, 13.42, 16.04, 19.82, 24.85,
(PID.TID 0000.0001) >     31.10, 38.42, 46.50, 55.00, 63.50, 71.58, 78.90, 85.15, 90.18,
(PID.TID 0000.0001) >     93.96, 96.58, 98.25, 99.25,100.01,101.33,104.56,111.33,122.83,
(PID.TID 0000.0001) >     139.09,158.94,180.83,203.55,226.50,249.50,272.50,295.50,318.50,
(PID.TID 0000.0001) >     341.50,364.50,387.50,410.50,433.50,456.50,
(PID.TID 0000.0001) > /
(PID.TID 0000.0001) >
(PID.TID 0000.0001) ># Input datasets
(PID.TID 0000.0001) > &PARM05
(PID.TID 0000.0001) > adTapeDir='tapes',
(PID.TID 0000.0001) ># bathyFile      ='bathy_shallow.bin',
(PID.TID 0000.0001) > bathyFile      ='bathy_global.bin',
(PID.TID 0000.0001) ># bathyFile      ='bathy_north.bin',
(PID.TID 0000.0001) ># bathyFile      ='bathy_south.bin',
(PID.TID 0000.0001) > hydrogThetaFile='some_T_atlas.bin',
(PID.TID 0000.0001) > hydrogSaltFile ='some_S_atlas.bin',
(PID.TID 0000.0001) >#
(PID.TID 0000.0001) > /
(PID.TID 0000.0001) 
(PID.TID 0000.0001)  INI_PARMS ; starts to read PARM01
(PID.TID 0000.0001)  INI_PARMS ; read PARM01 : OK
(PID.TID 0000.0001)  INI_PARMS ; starts to read PARM02
(PID.TID 0000.0001)  INI_PARMS ; read PARM02 : OK
(PID.TID 0000.0001)  INI_PARMS ; starts to read PARM03
(PID.TID 0000.0001)  INI_PARMS ; read PARM03 : OK
(PID.TID 0000.0001)  INI_PARMS ; starts to read PARM04
(PID.TID 0000.0001)  INI_PARMS ; read PARM04 : OK
(PID.TID 0000.0001)  INI_PARMS ; starts to read PARM05
(PID.TID 0000.0001)  INI_PARMS ; read PARM05 : OK
(PID.TID 0000.0001)  INI_PARMS: finished reading file "data"
(PID.TID 0000.0001)  PACKAGES_BOOT: opening data.pkg
(PID.TID 0000.0001)  OPEN_COPY_DATA_FILE: opening file data.pkg
(PID.TID 0000.0001) // =======================================================
(PID.TID 0000.0001) // Parameter file "data.pkg"
(PID.TID 0000.0001) // =======================================================
(PID.TID 0000.0001) ># Packages
(PID.TID 0000.0001) > &PACKAGES
(PID.TID 0000.0001) > useEXF             = .TRUE.,
(PID.TID 0000.0001) > useGMRedi          = .TRUE.,
(PID.TID 0000.0001) > useSeaice          = .TRUE.,
(PID.TID 0000.0001) > useGGL90           = .TRUE.,
(PID.TID 0000.0001) > useSALT_PlUME      = .TRUE.,
(PID.TID 0000.0001) > useDiagnostics     = .TRUE.,
(PID.TID 0000.0001) > useECCO            = .TRUE.,
(PID.TID 0000.0001) > useCTRL            = .TRUE.,
(PID.TID 0000.0001) > useProfiles        = .TRUE.,
(PID.TID 0000.0001) > useAUTODIFF        = .FALSE.,
(PID.TID 0000.0001) > useSMOOTH          = .FALSE.,
(PID.TID 0000.0001) > useGrdchk          = .FALSE.,
(PID.TID 0000.0001) >#
(PID.TID 0000.0001) >#useSBO             = .TRUE.,
(PID.TID 0000.0001) >#useRBCS            = .TRUE.,
(PID.TID 0000.0001) >#useKPP             = .TRUE.,
(PID.TID 0000.0001) >#useThsice          = .TRUE.,
(PID.TID 0000.0001) >#useDOWN_SLOPE      = .TRUE.,
(PID.TID 0000.0001) >#useLayers          = .TRUE.,
(PID.TID 0000.0001) >#usePtracers        = .TRUE.,
(PID.TID 0000.0001) >#useBBL             = .TRUE.,
(PID.TID 0000.0001) > /
(PID.TID 0000.0001) 
(PID.TID 0000.0001)  PACKAGES_BOOT: finished reading data.pkg
(PID.TID 0000.0001)  PACKAGES_BOOT: On/Off package Summary
 --------  pkgs with a standard "usePKG" On/Off switch in "data.pkg":  --------
 pkg/ggl90                compiled   and   used ( useGGL90                 = T )
 pkg/gmredi               compiled   and   used ( useGMRedi                = T )
 pkg/cal                  compiled   and   used ( useCAL                   = T )
 pkg/exf                  compiled   and   used ( useEXF                   = T )
 pkg/autodiff             compiled but not used ( useAUTODIFF              = F )
 pkg/grdchk               compiled but not used ( useGrdchk                = F )
 pkg/smooth               compiled but not used ( useSMOOTH                = F )
 pkg/profiles             compiled   and   used ( usePROFILES              = T )
 pkg/ecco                 compiled   and   used ( useECCO                  = T )
 pkg/ctrl                 compiled   and   used ( useCTRL                  = T )
 pkg/sbo                  compiled but not used ( useSBO                   = F )
 pkg/seaice               compiled   and   used ( useSEAICE                = T )
 pkg/salt_plume           compiled   and   used ( useSALT_PLUME            = T )
 pkg/diagnostics          compiled   and   used ( useDiagnostics           = T )
 -------- pkgs without standard "usePKG" On/Off switch in "data.pkg":  --------
 pkg/generic_advdiff      compiled   and   used ( useGAD                   = T )
 pkg/mom_common           compiled   and   used ( momStepping              = T )
 pkg/mom_vecinv           compiled   and   used ( +vectorInvariantMomentum = T )
 pkg/monitor              compiled   and   used ( monitorFreq > 0.         = T )
 pkg/timeave              compiled but not used ( taveFreq > 0.            = F )
 pkg/debug                compiled but not used ( debugMode                = F )
 pkg/exch2                compiled   and   used
 pkg/rw                   compiled   and   used
 pkg/mdsio                compiled   and   used
 pkg/autodiff             compiled   and   used
 pkg/cost                 compiled   and   used
(PID.TID 0000.0001)  PACKAGES_BOOT: End of package Summary
(PID.TID 0000.0001) 
(PID.TID 0000.0001) CAL_READPARMS: opening data.cal
(PID.TID 0000.0001)  OPEN_COPY_DATA_FILE: opening file data.cal
(PID.TID 0000.0001) // =======================================================
(PID.TID 0000.0001) // Parameter file "data.cal"
(PID.TID 0000.0001) // =======================================================
(PID.TID 0000.0001) >#
(PID.TID 0000.0001) ># *******************
(PID.TID 0000.0001) ># Calendar Parameters
(PID.TID 0000.0001) ># *******************
(PID.TID 0000.0001) > &CAL_NML
(PID.TID 0000.0001) > TheCalendar='gregorian',
(PID.TID 0000.0001) > calendarDumps=.TRUE.,
(PID.TID 0000.0001) ># TheCalendar='model',
(PID.TID 0000.0001) > startDate_1=19480101,
(PID.TID 0000.0001) > startDate_2=120000,
(PID.TID 0000.0001) > /
(PID.TID 0000.0001) 
(PID.TID 0000.0001) CAL_READPARMS: finished reading data.cal
(PID.TID 0000.0001) EXF_READPARMS: opening data.exf
(PID.TID 0000.0001)  OPEN_COPY_DATA_FILE: opening file data.exf
(PID.TID 0000.0001) // =======================================================
(PID.TID 0000.0001) // Parameter file "data.exf"
(PID.TID 0000.0001) // =======================================================
(PID.TID 0000.0001) ># *********************
(PID.TID 0000.0001) ># External Forcing Data
(PID.TID 0000.0001) ># *********************
(PID.TID 0000.0001) >#
(PID.TID 0000.0001) > &EXF_NML_01
(PID.TID 0000.0001) >#see MITgcm/verification/global_ocean.cs32x15/input.icedyn/data.exf
(PID.TID 0000.0001) > exf_albedo        = 0.066,
(PID.TID 0000.0001) > ht                = 10.,
(PID.TID 0000.0001) > ocean_emissivity  = 1.,
(PID.TID 0000.0001) > atmrho            = 1.22,
(PID.TID 0000.0001) > humid_fac         = .608,
(PID.TID 0000.0001) >#
(PID.TID 0000.0001) > exf_iprec         = 32,
(PID.TID 0000.0001) > exf_yftype        = 'RL',
(PID.TID 0000.0001) > useExfCheckRange  = .FALSE.,
(PID.TID 0000.0001) > repeatPeriod      = 31536000.,
(PID.TID 0000.0001) > useAtmWind        = .TRUE.,
(PID.TID 0000.0001) > /
(PID.TID 0000.0001) >#
(PID.TID 0000.0001) > &EXF_NML_02
(PID.TID 0000.0001) > uwindfile         = 'CORE2_u10m_6hrly_r2_cnyf',
(PID.TID 0000.0001) > vwindfile         = 'CORE2_v10m_6hrly_r2_cnyf',
(PID.TID 0000.0001) > atempfile         = 'CORE2_tmp10m_6hrly_r2_cnyf',
(PID.TID 0000.0001) > aqhfile           = 'CORE2_spfh10m_6hrly_r2_cnyf',
(PID.TID 0000.0001) > precipfile        = 'CORE2_rain_monthly_r2_cnyf',
(PID.TID 0000.0001) > swdownfile        = 'CORE2_dsw_daily_r2_cnyf',
(PID.TID 0000.0001) > lwdownfile        = 'CORE2_dlw_daily_r2_cnyf',
(PID.TID 0000.0001) >#
(PID.TID 0000.0001) > ustressstartdate1   = 19470101,
(PID.TID 0000.0001) > ustressstartdate2   = 030000,
(PID.TID 0000.0001) > ustressperiod       = 21600.0,
(PID.TID 0000.0001) >#
(PID.TID 0000.0001) > vstressstartdate1   = 19470101,
(PID.TID 0000.0001) > vstressstartdate2   = 030000,
(PID.TID 0000.0001) > vstressperiod       = 21600.0,
(PID.TID 0000.0001) >#
(PID.TID 0000.0001) > atempstartdate1   = 19470101,
(PID.TID 0000.0001) > atempstartdate2   = 030000,
(PID.TID 0000.0001) > atempperiod       = 21600.0,
(PID.TID 0000.0001) >#
(PID.TID 0000.0001) > aqhstartdate1     = 19470101,
(PID.TID 0000.0001) > aqhstartdate2     = 030000,
(PID.TID 0000.0001) > aqhperiod         = 21600.0,
(PID.TID 0000.0001) >#
(PID.TID 0000.0001) > precipstartdate1  = 19470115,
(PID.TID 0000.0001) > precipstartdate2  = 120000,
(PID.TID 0000.0001) > precipperiod      = 2628000.0,
(PID.TID 0000.0001) >#or precipperiod = -12.,
(PID.TID 0000.0001) >#
(PID.TID 0000.0001) > runoffstartdate1  = 19470115,
(PID.TID 0000.0001) > runoffstartdate2  = 120000,
(PID.TID 0000.0001) > runoffperiod      = 2628000.0,
(PID.TID 0000.0001) >#
(PID.TID 0000.0001) > uwindstartdate1   = 19470101,
(PID.TID 0000.0001) > uwindstartdate2   = 030000,
(PID.TID 0000.0001) > uwindperiod       = 21600.0,
(PID.TID 0000.0001) >#
(PID.TID 0000.0001) > vwindstartdate1   = 19470101,
(PID.TID 0000.0001) > vwindstartdate2   = 030000,
(PID.TID 0000.0001) > vwindperiod       = 21600.0,
(PID.TID 0000.0001) >#
(PID.TID 0000.0001) > wspeedstartdate1   = 19470101,
(PID.TID 0000.0001) > wspeedstartdate2   = 120000,
(PID.TID 0000.0001) > wspeedperiod       = 21600.0,
(PID.TID 0000.0001) >#
(PID.TID 0000.0001) > swdownstartdate1  = 19470101,
(PID.TID 0000.0001) > swdownstartdate2  = 120000,
(PID.TID 0000.0001) > swdownperiod      = 86400.0,
(PID.TID 0000.0001) >#
(PID.TID 0000.0001) > lwdownstartdate1  = 19470101,
(PID.TID 0000.0001) > lwdownstartdate2  = 120000,
(PID.TID 0000.0001) > lwdownperiod      = 86400.0,
(PID.TID 0000.0001) >#
(PID.TID 0000.0001) > apressurestartdate1   = 19470101,
(PID.TID 0000.0001) > apressurestartdate2   = 120000,
(PID.TID 0000.0001) > apressureperiod       = 21600.0,
(PID.TID 0000.0001) >#
(PID.TID 0000.0001) > climsssfile       = 'some_SSS_atlas.bin',
(PID.TID 0000.0001) > climsssperiod     = -12.,
(PID.TID 0000.0001) ># climsssTauRelax   = 15768000.,
(PID.TID 0000.0001) > climsssTauRelax   = 25920000.,
(PID.TID 0000.0001) > /
(PID.TID 0000.0001) >#
(PID.TID 0000.0001) > &EXF_NML_03
(PID.TID 0000.0001) >#NOT FOR EIG exf_offset_atemp  = 273.3971,
(PID.TID 0000.0001) > exf_offset_atemp  = 273.15,
(PID.TID 0000.0001) >#not with core2_cnyf exf_inscal_runoff = 1.e-06,
(PID.TID 0000.0001) ># to compensate for sea level rise for nlfs/realFWF
(PID.TID 0000.0001) ># precip_exfremo_intercept = 1.073E-9,
(PID.TID 0000.0001) ># precip_exfremo_slope = -3.340E-18,
(PID.TID 0000.0001) > /
(PID.TID 0000.0001) >#
(PID.TID 0000.0001) > &EXF_NML_04
(PID.TID 0000.0001) > runoff_interpMethod = 0,
(PID.TID 0000.0001) > climsss_interpMethod = 0,
(PID.TID 0000.0001) >#
(PID.TID 0000.0001) > atemp_lon0        = 0.00D0,
(PID.TID 0000.0001) > atemp_lon_inc     = 1.875D0,
(PID.TID 0000.0001) > atemp_lat0        = -88.5420D0,
(PID.TID 0000.0001) > atemp_lat_inc     = 1.8888, 1.9000, 1.9024, 1.9034, 1.9039, 1.9042,
(PID.TID 0000.0001) >     1.9042, 1.9044, 1.9045, 1.9045, 1.9046, 1.9046, 1.9046, 1.9046,
(PID.TID 0000.0001) >     1.9047, 1.9046, 1.9047, 1.9047, 1.9047, 1.9047, 1.9047, 1.9047,
(PID.TID 0000.0001) >     1.9047, 1.9047, 1.9047, 1.9047, 1.9048, 1.9047, 1.9047, 1.9047,
(PID.TID 0000.0001) >     1.9047, 1.9048, 1.9047, 1.9047, 1.9048, 1.9047, 1.9047, 1.9048,
(PID.TID 0000.0001) >     1.9047, 1.9047, 1.9048, 1.9047, 1.9047, 1.9048, 1.9047, 1.9047,
(PID.TID 0000.0001) >     1.9048, 1.9047, 1.9047, 1.9048, 1.9047, 1.9047, 1.9048, 1.9047,
(PID.TID 0000.0001) >     1.9047, 1.9048, 1.9047, 1.9047, 1.9048, 1.9047, 1.9047, 1.9048,
(PID.TID 0000.0001) >     1.9047, 1.9047, 1.9047, 1.9047, 1.9048, 1.9047, 1.9047, 1.9047,
(PID.TID 0000.0001) >     1.9047, 1.9047, 1.9047, 1.9047, 1.9047, 1.9047, 1.9047, 1.9046,
(PID.TID 0000.0001) >     1.9047, 1.9046, 1.9046, 1.9046, 1.9046, 1.9045, 1.9045, 1.9044,
(PID.TID 0000.0001) >     1.9042, 1.9042, 1.9039, 1.9034, 1.9024, 1.9000, 1.8888, 1.8888,
(PID.TID 0000.0001) > atemp_nlon        = 192,
(PID.TID 0000.0001) > atemp_nlat        = 94,
(PID.TID 0000.0001) >#
(PID.TID 0000.0001) > aqh_lon0          = 0.00D0,
(PID.TID 0000.0001) > aqh_lon_inc       = 1.875D0,
(PID.TID 0000.0001) > aqh_lat0          = -88.5420D0,
(PID.TID 0000.0001) > aqh_lat_inc       = 1.8888, 1.9000, 1.9024, 1.9034, 1.9039, 1.9042,
(PID.TID 0000.0001) >     1.9042, 1.9044, 1.9045, 1.9045, 1.9046, 1.9046, 1.9046, 1.9046,
(PID.TID 0000.0001) >     1.9047, 1.9046, 1.9047, 1.9047, 1.9047, 1.9047, 1.9047, 1.9047,
(PID.TID 0000.0001) >     1.9047, 1.9047, 1.9047, 1.9047, 1.9048, 1.9047, 1.9047, 1.9047,
(PID.TID 0000.0001) >     1.9047, 1.9048, 1.9047, 1.9047, 1.9048, 1.9047, 1.9047, 1.9048,
(PID.TID 0000.0001) >     1.9047, 1.9047, 1.9048, 1.9047, 1.9047, 1.9048, 1.9047, 1.9047,
(PID.TID 0000.0001) >     1.9048, 1.9047, 1.9047, 1.9048, 1.9047, 1.9047, 1.9048, 1.9047,
(PID.TID 0000.0001) >     1.9047, 1.9048, 1.9047, 1.9047, 1.9048, 1.9047, 1.9047, 1.9048,
(PID.TID 0000.0001) >     1.9047, 1.9047, 1.9047, 1.9047, 1.9048, 1.9047, 1.9047, 1.9047,
(PID.TID 0000.0001) >     1.9047, 1.9047, 1.9047, 1.9047, 1.9047, 1.9047, 1.9047, 1.9046,
(PID.TID 0000.0001) >     1.9047, 1.9046, 1.9046, 1.9046, 1.9046, 1.9045, 1.9045, 1.9044,
(PID.TID 0000.0001) >     1.9042, 1.9042, 1.9039, 1.9034, 1.9024, 1.9000, 1.8888, 1.8888,
(PID.TID 0000.0001) > aqh_nlon          = 192,
(PID.TID 0000.0001) > aqh_nlat          = 94,
(PID.TID 0000.0001) >#
(PID.TID 0000.0001) > precip_lon0       = 0.00D0,
(PID.TID 0000.0001) > precip_lon_inc    = 1.875D0,
(PID.TID 0000.0001) > precip_lat0       = -88.5420D0,
(PID.TID 0000.0001) > precip_lat_inc    = 1.8888, 1.9000, 1.9024, 1.9034, 1.9039, 1.9042,
(PID.TID 0000.0001) >     1.9042, 1.9044, 1.9045, 1.9045, 1.9046, 1.9046, 1.9046, 1.9046,
(PID.TID 0000.0001) >     1.9047, 1.9046, 1.9047, 1.9047, 1.9047, 1.9047, 1.9047, 1.9047,
(PID.TID 0000.0001) >     1.9047, 1.9047, 1.9047, 1.9047, 1.9048, 1.9047, 1.9047, 1.9047,
(PID.TID 0000.0001) >     1.9047, 1.9048, 1.9047, 1.9047, 1.9048, 1.9047, 1.9047, 1.9048,
(PID.TID 0000.0001) >     1.9047, 1.9047, 1.9048, 1.9047, 1.9047, 1.9048, 1.9047, 1.9047,
(PID.TID 0000.0001) >     1.9048, 1.9047, 1.9047, 1.9048, 1.9047, 1.9047, 1.9048, 1.9047,
(PID.TID 0000.0001) >     1.9047, 1.9048, 1.9047, 1.9047, 1.9048, 1.9047, 1.9047, 1.9048,
(PID.TID 0000.0001) >     1.9047, 1.9047, 1.9047, 1.9047, 1.9048, 1.9047, 1.9047, 1.9047,
(PID.TID 0000.0001) >     1.9047, 1.9047, 1.9047, 1.9047, 1.9047, 1.9047, 1.9047, 1.9046,
(PID.TID 0000.0001) >     1.9047, 1.9046, 1.9046, 1.9046, 1.9046, 1.9045, 1.9045, 1.9044,
(PID.TID 0000.0001) >     1.9042, 1.9042, 1.9039, 1.9034, 1.9024, 1.9000, 1.8888, 1.8888,
(PID.TID 0000.0001) > precip_nlon       = 192,
(PID.TID 0000.0001) > precip_nlat       = 94,
(PID.TID 0000.0001) >#
(PID.TID 0000.0001) > uwind_lon0        = 0.00D0,
(PID.TID 0000.0001) > uwind_lon_inc     = 1.875D0,
(PID.TID 0000.0001) > uwind_lat0        = -88.5420D0,
(PID.TID 0000.0001) > uwind_lat_inc     = 1.8888, 1.9000, 1.9024, 1.9034, 1.9039, 1.9042,
(PID.TID 0000.0001) >     1.9042, 1.9044, 1.9045, 1.9045, 1.9046, 1.9046, 1.9046, 1.9046,
(PID.TID 0000.0001) >     1.9047, 1.9046, 1.9047, 1.9047, 1.9047, 1.9047, 1.9047, 1.9047,
(PID.TID 0000.0001) >     1.9047, 1.9047, 1.9047, 1.9047, 1.9048, 1.9047, 1.9047, 1.9047,
(PID.TID 0000.0001) >     1.9047, 1.9048, 1.9047, 1.9047, 1.9048, 1.9047, 1.9047, 1.9048,
(PID.TID 0000.0001) >     1.9047, 1.9047, 1.9048, 1.9047, 1.9047, 1.9048, 1.9047, 1.9047,
(PID.TID 0000.0001) >     1.9048, 1.9047, 1.9047, 1.9048, 1.9047, 1.9047, 1.9048, 1.9047,
(PID.TID 0000.0001) >     1.9047, 1.9048, 1.9047, 1.9047, 1.9048, 1.9047, 1.9047, 1.9048,
(PID.TID 0000.0001) >     1.9047, 1.9047, 1.9047, 1.9047, 1.9048, 1.9047, 1.9047, 1.9047,
(PID.TID 0000.0001) >     1.9047, 1.9047, 1.9047, 1.9047, 1.9047, 1.9047, 1.9047, 1.9046,
(PID.TID 0000.0001) >     1.9047, 1.9046, 1.9046, 1.9046, 1.9046, 1.9045, 1.9045, 1.9044,
(PID.TID 0000.0001) >     1.9042, 1.9042, 1.9039, 1.9034, 1.9024, 1.9000, 1.8888, 1.8888,
(PID.TID 0000.0001) > uwind_nlon        = 192,
(PID.TID 0000.0001) > uwind_nlat        = 94,
(PID.TID 0000.0001) >#
(PID.TID 0000.0001) > vwind_lon0        = 0.00D0,
(PID.TID 0000.0001) > vwind_lon_inc     = 1.875D0,
(PID.TID 0000.0001) > vwind_lat0        = -88.5420D0,
(PID.TID 0000.0001) > vwind_lat_inc     = 1.8888, 1.9000, 1.9024, 1.9034, 1.9039, 1.9042,
(PID.TID 0000.0001) >     1.9042, 1.9044, 1.9045, 1.9045, 1.9046, 1.9046, 1.9046, 1.9046,
(PID.TID 0000.0001) >     1.9047, 1.9046, 1.9047, 1.9047, 1.9047, 1.9047, 1.9047, 1.9047,
(PID.TID 0000.0001) >     1.9047, 1.9047, 1.9047, 1.9047, 1.9048, 1.9047, 1.9047, 1.9047,
(PID.TID 0000.0001) >     1.9047, 1.9048, 1.9047, 1.9047, 1.9048, 1.9047, 1.9047, 1.9048,
(PID.TID 0000.0001) >     1.9047, 1.9047, 1.9048, 1.9047, 1.9047, 1.9048, 1.9047, 1.9047,
(PID.TID 0000.0001) >     1.9048, 1.9047, 1.9047, 1.9048, 1.9047, 1.9047, 1.9048, 1.9047,
(PID.TID 0000.0001) >     1.9047, 1.9048, 1.9047, 1.9047, 1.9048, 1.9047, 1.9047, 1.9048,
(PID.TID 0000.0001) >     1.9047, 1.9047, 1.9047, 1.9047, 1.9048, 1.9047, 1.9047, 1.9047,
(PID.TID 0000.0001) >     1.9047, 1.9047, 1.9047, 1.9047, 1.9047, 1.9047, 1.9047, 1.9046,
(PID.TID 0000.0001) >     1.9047, 1.9046, 1.9046, 1.9046, 1.9046, 1.9045, 1.9045, 1.9044,
(PID.TID 0000.0001) >     1.9042, 1.9042, 1.9039, 1.9034, 1.9024, 1.9000, 1.8888, 1.8888,
(PID.TID 0000.0001) > vwind_nlon        = 192,
(PID.TID 0000.0001) > vwind_nlat        = 94,
(PID.TID 0000.0001) >#
(PID.TID 0000.0001) > swdown_lon0       = 0.00D0,
(PID.TID 0000.0001) > swdown_lon_inc    = 1.875D0,
(PID.TID 0000.0001) > swdown_lat0       = -88.5420D0,
(PID.TID 0000.0001) > swdown_lat_inc    = 1.8888, 1.9000, 1.9024, 1.9034, 1.9039, 1.9042,
(PID.TID 0000.0001) >     1.9042, 1.9044, 1.9045, 1.9045, 1.9046, 1.9046, 1.9046, 1.9046,
(PID.TID 0000.0001) >     1.9047, 1.9046, 1.9047, 1.9047, 1.9047, 1.9047, 1.9047, 1.9047,
(PID.TID 0000.0001) >     1.9047, 1.9047, 1.9047, 1.9047, 1.9048, 1.9047, 1.9047, 1.9047,
(PID.TID 0000.0001) >     1.9047, 1.9048, 1.9047, 1.9047, 1.9048, 1.9047, 1.9047, 1.9048,
(PID.TID 0000.0001) >     1.9047, 1.9047, 1.9048, 1.9047, 1.9047, 1.9048, 1.9047, 1.9047,
(PID.TID 0000.0001) >     1.9048, 1.9047, 1.9047, 1.9048, 1.9047, 1.9047, 1.9048, 1.9047,
(PID.TID 0000.0001) >     1.9047, 1.9048, 1.9047, 1.9047, 1.9048, 1.9047, 1.9047, 1.9048,
(PID.TID 0000.0001) >     1.9047, 1.9047, 1.9047, 1.9047, 1.9048, 1.9047, 1.9047, 1.9047,
(PID.TID 0000.0001) >     1.9047, 1.9047, 1.9047, 1.9047, 1.9047, 1.9047, 1.9047, 1.9046,
(PID.TID 0000.0001) >     1.9047, 1.9046, 1.9046, 1.9046, 1.9046, 1.9045, 1.9045, 1.9044,
(PID.TID 0000.0001) >     1.9042, 1.9042, 1.9039, 1.9034, 1.9024, 1.9000, 1.8888, 1.8888,
(PID.TID 0000.0001) > swdown_nlon       = 192,
(PID.TID 0000.0001) > swdown_nlat       = 94,
(PID.TID 0000.0001) >#
(PID.TID 0000.0001) > lwdown_lon0       = 0.00D0,
(PID.TID 0000.0001) > lwdown_lon_inc    = 1.875D0,
(PID.TID 0000.0001) > lwdown_lat0       = -88.5420D0,
(PID.TID 0000.0001) > lwdown_lat_inc    = 1.8888, 1.9000, 1.9024, 1.9034, 1.9039, 1.9042,
(PID.TID 0000.0001) >     1.9042, 1.9044, 1.9045, 1.9045, 1.9046, 1.9046, 1.9046, 1.9046,
(PID.TID 0000.0001) >     1.9047, 1.9046, 1.9047, 1.9047, 1.9047, 1.9047, 1.9047, 1.9047,
(PID.TID 0000.0001) >     1.9047, 1.9047, 1.9047, 1.9047, 1.9048, 1.9047, 1.9047, 1.9047,
(PID.TID 0000.0001) >     1.9047, 1.9048, 1.9047, 1.9047, 1.9048, 1.9047, 1.9047, 1.9048,
(PID.TID 0000.0001) >     1.9047, 1.9047, 1.9048, 1.9047, 1.9047, 1.9048, 1.9047, 1.9047,
(PID.TID 0000.0001) >     1.9048, 1.9047, 1.9047, 1.9048, 1.9047, 1.9047, 1.9048, 1.9047,
(PID.TID 0000.0001) >     1.9047, 1.9048, 1.9047, 1.9047, 1.9048, 1.9047, 1.9047, 1.9048,
(PID.TID 0000.0001) >     1.9047, 1.9047, 1.9047, 1.9047, 1.9048, 1.9047, 1.9047, 1.9047,
(PID.TID 0000.0001) >     1.9047, 1.9047, 1.9047, 1.9047, 1.9047, 1.9047, 1.9047, 1.9046,
(PID.TID 0000.0001) >     1.9047, 1.9046, 1.9046, 1.9046, 1.9046, 1.9045, 1.9045, 1.9044,
(PID.TID 0000.0001) >     1.9042, 1.9042, 1.9039, 1.9034, 1.9024, 1.9000, 1.8888, 1.8888,
(PID.TID 0000.0001) > lwdown_nlon       = 192,
(PID.TID 0000.0001) > lwdown_nlat       = 94,
(PID.TID 0000.0001) >#
(PID.TID 0000.0001) > apressure_lon0       = 0.00D0,
(PID.TID 0000.0001) > apressure_lon_inc    = 1.875D0,
(PID.TID 0000.0001) > apressure_lat0       = -88.5420D0,
(PID.TID 0000.0001) > apressure_lat_inc    = 1.8888, 1.9000, 1.9024, 1.9034, 1.9039, 1.9042,
(PID.TID 0000.0001) >     1.9042, 1.9044, 1.9045, 1.9045, 1.9046, 1.9046, 1.9046, 1.9046,
(PID.TID 0000.0001) >     1.9047, 1.9046, 1.9047, 1.9047, 1.9047, 1.9047, 1.9047, 1.9047,
(PID.TID 0000.0001) >     1.9047, 1.9047, 1.9047, 1.9047, 1.9048, 1.9047, 1.9047, 1.9047,
(PID.TID 0000.0001) >     1.9047, 1.9048, 1.9047, 1.9047, 1.9048, 1.9047, 1.9047, 1.9048,
(PID.TID 0000.0001) >     1.9047, 1.9047, 1.9048, 1.9047, 1.9047, 1.9048, 1.9047, 1.9047,
(PID.TID 0000.0001) >     1.9048, 1.9047, 1.9047, 1.9048, 1.9047, 1.9047, 1.9048, 1.9047,
(PID.TID 0000.0001) >     1.9047, 1.9048, 1.9047, 1.9047, 1.9048, 1.9047, 1.9047, 1.9048,
(PID.TID 0000.0001) >     1.9047, 1.9047, 1.9047, 1.9047, 1.9048, 1.9047, 1.9047, 1.9047,
(PID.TID 0000.0001) >     1.9047, 1.9047, 1.9047, 1.9047, 1.9047, 1.9047, 1.9047, 1.9046,
(PID.TID 0000.0001) >     1.9047, 1.9046, 1.9046, 1.9046, 1.9046, 1.9045, 1.9045, 1.9044,
(PID.TID 0000.0001) >     1.9042, 1.9042, 1.9039, 1.9034, 1.9024, 1.9000, 1.8888, 1.8888,
(PID.TID 0000.0001) > apressure_nlon       = 192,
(PID.TID 0000.0001) > apressure_nlat       = 94,
(PID.TID 0000.0001) > /
(PID.TID 0000.0001) 
(PID.TID 0000.0001) EXF_READPARMS: reading EXF_NML_01
(PID.TID 0000.0001) EXF_READPARMS: reading EXF_NML_02
(PID.TID 0000.0001) EXF_READPARMS: reading EXF_NML_03
(PID.TID 0000.0001) EXF_READPARMS: reading EXF_NML_04
(PID.TID 0000.0001) EXF_READPARMS: finished reading data.exf
(PID.TID 0000.0001)  GGL90_READPARMS: opening data.ggl90
(PID.TID 0000.0001)  OPEN_COPY_DATA_FILE: opening file data.ggl90
(PID.TID 0000.0001) // =======================================================
(PID.TID 0000.0001) // Parameter file "data.ggl90"
(PID.TID 0000.0001) // =======================================================
(PID.TID 0000.0001) ># =====================================================================
(PID.TID 0000.0001) ># | Parameters for Gaspar et al. (1990)'s TKE vertical mixing scheme  |
(PID.TID 0000.0001) ># =====================================================================
(PID.TID 0000.0001) > &GGL90_PARM01
(PID.TID 0000.0001) ># GGL90taveFreq = 345600000.,
(PID.TID 0000.0001) ># GGL90dumpFreq = 86400.,
(PID.TID 0000.0001) ># GGL90writeState=.FALSE.,
(PID.TID 0000.0001) ># GGL90diffTKEh=3.e3,
(PID.TID 0000.0001) > GGL90alpha=30.,
(PID.TID 0000.0001) ># GGL90TKEFile = 'TKE_init.bin',
(PID.TID 0000.0001) > GGL90TKEmin  = 1.e-7,
(PID.TID 0000.0001) > GGL90TKEbottom = 1.e-6,
(PID.TID 0000.0001) > mxlMaxFlag =2,
(PID.TID 0000.0001) > mxlSurfFlag=.TRUE.,
(PID.TID 0000.0001) > /
(PID.TID 0000.0001) 
(PID.TID 0000.0001)  GGL90_READPARMS: finished reading data.ggl90
(PID.TID 0000.0001) // =======================================================
(PID.TID 0000.0001) // GGL90 configuration
(PID.TID 0000.0001) // =======================================================
(PID.TID 0000.0001) GGL90dumpFreq =   /* GGL90 state write out interval ( s ). */
(PID.TID 0000.0001)                 0.000000000000000E+00
(PID.TID 0000.0001)     ;
(PID.TID 0000.0001) GGL90taveFreq =   /* GGL90 averaging interval ( s ). */
(PID.TID 0000.0001)                 0.000000000000000E+00
(PID.TID 0000.0001)     ;
(PID.TID 0000.0001) GGL90mixingMAPS =   /* GGL90 IO flag. */
(PID.TID 0000.0001)                   F
(PID.TID 0000.0001)     ;
(PID.TID 0000.0001) GGL90writeState =   /* GGL90 IO flag. */
(PID.TID 0000.0001)                   F
(PID.TID 0000.0001)     ;
(PID.TID 0000.0001) GGL90ck =   /* GGL90 viscosity parameter. */
(PID.TID 0000.0001)                 1.000000000000000E-01
(PID.TID 0000.0001)     ;
(PID.TID 0000.0001) GGL90ceps =   /* GGL90 dissipation parameter. */
(PID.TID 0000.0001)                 7.000000000000000E-01
(PID.TID 0000.0001)     ;
(PID.TID 0000.0001) GGL90alpha =   /* GGL90 TKE diffusivity parameter. */
(PID.TID 0000.0001)                 3.000000000000000E+01
(PID.TID 0000.0001)     ;
(PID.TID 0000.0001) GGL90m2 =   /* GGL90 wind stress to vertical stress ratio. */
(PID.TID 0000.0001)                 3.750000000000000E+00
(PID.TID 0000.0001)     ;
(PID.TID 0000.0001) GGL90TKEmin =   /* GGL90 minimum kinetic energy ( m^2/s^2 ). */
(PID.TID 0000.0001)                 1.000000000000000E-07
(PID.TID 0000.0001)     ;
(PID.TID 0000.0001) GGL90TKEsurfMin =   /* GGL90 minimum surface kinetic energy ( m^2/s^2 ). */
(PID.TID 0000.0001)                 1.000000000000000E-04
(PID.TID 0000.0001)     ;
(PID.TID 0000.0001) GGL90TKEbottom =   /* GGL90 bottom kinetic energy ( m^2/s^2 ). */
(PID.TID 0000.0001)                 1.000000000000000E-06
(PID.TID 0000.0001)     ;
(PID.TID 0000.0001) GGL90viscMax =   /* GGL90 upper limit for viscosity ( m^2/s ). */
(PID.TID 0000.0001)                 1.000000000000000E+02
(PID.TID 0000.0001)     ;
(PID.TID 0000.0001) GGL90diffMax =   /* GGL90 upper limit for diffusivity ( m^2/s ). */
(PID.TID 0000.0001)                 1.000000000000000E+02
(PID.TID 0000.0001)     ;
(PID.TID 0000.0001) GGL90diffTKEh =   /* GGL90 horizontal diffusivity for TKE ( m^2/s ). */
(PID.TID 0000.0001)                 0.000000000000000E+00
(PID.TID 0000.0001)     ;
(PID.TID 0000.0001) GGL90mixingLengthMin =   /* GGL90 minimum mixing length ( m ). */
(PID.TID 0000.0001)                 1.000000000000000E-08
(PID.TID 0000.0001)     ;
(PID.TID 0000.0001) mxlMaxFlag =   /* Flag for limiting mixing-length method */
(PID.TID 0000.0001)                       2
(PID.TID 0000.0001)     ;
(PID.TID 0000.0001) mxlSurfFlag =   /* GGL90 flag for near surface mixing. */
(PID.TID 0000.0001)                   T
(PID.TID 0000.0001)     ;
(PID.TID 0000.0001) GGL90: GGL90TKEFile =
(PID.TID 0000.0001) GGL90writeState =   /* GGL90 Boundary condition flag. */
(PID.TID 0000.0001)                   T
(PID.TID 0000.0001)     ;
(PID.TID 0000.0001) // =======================================================
(PID.TID 0000.0001) // End of GGL90 config. summary
(PID.TID 0000.0001) // =======================================================
(PID.TID 0000.0001) 
(PID.TID 0000.0001)  GM_READPARMS: opening data.gmredi
(PID.TID 0000.0001)  OPEN_COPY_DATA_FILE: opening file data.gmredi
(PID.TID 0000.0001) // =======================================================
(PID.TID 0000.0001) // Parameter file "data.gmredi"
(PID.TID 0000.0001) // =======================================================
(PID.TID 0000.0001) ># GM+Redi package parameters:
(PID.TID 0000.0001) >#     GM_Small_Number  :: epsilon used in computing the slope
(PID.TID 0000.0001) >#     GM_slopeSqCutoff :: slope^2 cut-off value
(PID.TID 0000.0001) >
(PID.TID 0000.0001) >#-from MOM :
(PID.TID 0000.0001) ># GM_background_K: 	G & Mc.W  diffusion coefficient
(PID.TID 0000.0001) ># GM_maxSlope    :	max slope of isopycnals
(PID.TID 0000.0001) ># GM_Scrit       :	transition for scaling diffusion coefficient
(PID.TID 0000.0001) ># GM_Sd          :	half width scaling for diffusion coefficient
(PID.TID 0000.0001) ># GM_taper_scheme:	slope clipping or one of the tapering schemes
(PID.TID 0000.0001) ># GM_Kmin_horiz  :	horizontal diffusion minimum value
(PID.TID 0000.0001) >
(PID.TID 0000.0001) >#-Option parameters (needs to "define" options in GMREDI_OPTIONS.h")
(PID.TID 0000.0001) ># GM_isopycK     :	isopycnal diffusion coefficient (default=GM_background_K)
(PID.TID 0000.0001) ># GM_AdvForm     :	turn on GM Advective form       (default=Skew flux form)
(PID.TID 0000.0001) >
(PID.TID 0000.0001) > &GM_PARM01
(PID.TID 0000.0001) >  GM_Small_Number  = 1.D-20,
(PID.TID 0000.0001) >  GM_slopeSqCutoff = 1.D+08,
(PID.TID 0000.0001) >  GM_AdvForm         = .TRUE.,
(PID.TID 0000.0001) >  GM_isopycK         = 1.D+3,
(PID.TID 0000.0001) >  GM_background_K    = 1.D+3,
(PID.TID 0000.0001) >  GM_maxSlope        = 4.D-3,
(PID.TID 0000.0001) >  GM_taper_scheme    = 'gkw91',
(PID.TID 0000.0001) >  GM_Kmin_horiz      = 100.,
(PID.TID 0000.0001) >  GM_Scrit           = 4.D-3,
(PID.TID 0000.0001) >  GM_Sd              = 1.D-3,
(PID.TID 0000.0001) >#
(PID.TID 0000.0001) >###  GM_Visbeck_alpha   = 1.5D-2,
(PID.TID 0000.0001) >###  GM_Visbeck_alpha   = 0.D0,
(PID.TID 0000.0001) >###  GM_Visbeck_length  = 2.D+5,
(PID.TID 0000.0001) >###  GM_Visbeck_depth   = 1.D+3,
(PID.TID 0000.0001) >###  GM_Visbeck_maxval_K= 2.5D+3,
(PID.TID 0000.0001) > /
(PID.TID 0000.0001) >
(PID.TID 0000.0001) >
(PID.TID 0000.0001) 
(PID.TID 0000.0001)  GM_READPARMS: finished reading data.gmredi
(PID.TID 0000.0001) 
(PID.TID 0000.0001)  SEAICE_READPARMS: opening data.seaice
(PID.TID 0000.0001)  OPEN_COPY_DATA_FILE: opening file data.seaice
(PID.TID 0000.0001) // =======================================================
(PID.TID 0000.0001) // Parameter file "data.seaice"
(PID.TID 0000.0001) // =======================================================
(PID.TID 0000.0001) ># SEAICE parameters
(PID.TID 0000.0001) > &SEAICE_PARM01
(PID.TID 0000.0001) >#here I take the fields from pickup.seaice.previous.data that
(PID.TID 0000.0001) >#came out of experiment 2 ("relax") part 4 to initialize part 5
(PID.TID 0000.0001) >      AreaFile='siAREA.ini',
(PID.TID 0000.0001) >      HeffFile='siHEFF.ini',
(PID.TID 0000.0001) >      HsnowFile='siHSNOW.ini',
(PID.TID 0000.0001) >      uIceFile='siUICE.ini',
(PID.TID 0000.0001) >      vIceFile='siVICE.ini',
(PID.TID 0000.0001) >#
(PID.TID 0000.0001) >      SEAICEuseTILT=.FALSE.,
(PID.TID 0000.0001) >      SEAICEpresH0=2.,
(PID.TID 0000.0001) >      SEAICEpresPow0=1,
(PID.TID 0000.0001) >      SEAICEpresPow1=1,
(PID.TID 0000.0001) >      SEAICE_strength = 2.25e4,
(PID.TID 0000.0001) >      SEAICE_multDim=1,
(PID.TID 0000.0001) >      SEAICErestoreUnderIce=.TRUE.,
(PID.TID 0000.0001) >      SEAICE_area_max=0.97,
(PID.TID 0000.0001) >      SEAICE_salt0=4.,
(PID.TID 0000.0001) >      LSR_ERROR          = 2.e-4,
(PID.TID 0000.0001) >      SEAICEuseDYNAMICS  = .TRUE.,
(PID.TID 0000.0001) >      MIN_ATEMP          = -40.,
(PID.TID 0000.0001) >      MIN_TICE           = -40.,
(PID.TID 0000.0001) >      SEAICEadvScheme    = 33,
(PID.TID 0000.0001) >      SEAICEuseFluxForm = .TRUE.,
(PID.TID 0000.0001) >      SEAICEadvSnow      = .TRUE.,
(PID.TID 0000.0001) >#      SEAICEadvSalt      = .TRUE.,
(PID.TID 0000.0001) >      SEAICEdiffKhHeff   = 400.,
(PID.TID 0000.0001) >      SEAICEdiffKhArea   = 400.,
(PID.TID 0000.0001) >      SEAICEdiffKhSnow   = 400.,
(PID.TID 0000.0001) >#      SEAICEdiffKhSalt   = 400.,
(PID.TID 0000.0001) >      SEAICEuseFlooding  = .TRUE.,
(PID.TID 0000.0001) >      SEAICE_mcPheePiston= 3.858024691358025E-05,
(PID.TID 0000.0001) >      SEAICE_frazilFrac  = 1.,
(PID.TID 0000.0001) >      SEAICE_mcPheeTaper = 0.,
(PID.TID 0000.0001) >      SEAICE_areaLossFormula=2,
(PID.TID 0000.0001) >      SEAICEheatConsFix  = .TRUE.,
(PID.TID 0000.0001) >      SEAICE_tempFrz0    = -1.96,
(PID.TID 0000.0001) >      SEAICE_dTempFrz_dS = 0.,
(PID.TID 0000.0001) >      SEAICEuseMetricTerms = .TRUE.,
(PID.TID 0000.0001) >      SEAICE_no_slip     = .TRUE.,
(PID.TID 0000.0001) >      SEAICE_clipVelocities = .TRUE.,
(PID.TID 0000.0001) > /
(PID.TID 0000.0001) >#
(PID.TID 0000.0001) > &SEAICE_PARM02
(PID.TID 0000.0001) > /
(PID.TID 0000.0001) >
(PID.TID 0000.0001) 
(PID.TID 0000.0001)  SEAICE_READPARMS: finished reading data.seaice
(PID.TID 0000.0001) SALT_PLUME_READPARMS: opening data.salt_plume
(PID.TID 0000.0001)  OPEN_COPY_DATA_FILE: opening file data.salt_plume
(PID.TID 0000.0001) // =======================================================
(PID.TID 0000.0001) // Parameter file "data.salt_plume"
(PID.TID 0000.0001) // =======================================================
(PID.TID 0000.0001) > &SALT_PLUME_PARM01
(PID.TID 0000.0001) ># SaltPlumeCriterion = 0.4D0,
(PID.TID 0000.0001) > SPsalFRAC= 0.5D0,
(PID.TID 0000.0001) >#SPsalFRAC= 0.25D0,
(PID.TID 0000.0001) >#SPsalFRAC= 0.0D0,
(PID.TID 0000.0001) > /
(PID.TID 0000.0001) 
(PID.TID 0000.0001) SALT_PLUME_READPARMS: finished reading data.salt_plume
(PID.TID 0000.0001) OPTIM_READPARMS: opening data.optim
(PID.TID 0000.0001)  OPEN_COPY_DATA_FILE: opening file data.optim
(PID.TID 0000.0001) // =======================================================
(PID.TID 0000.0001) // Parameter file "data.optim"
(PID.TID 0000.0001) // =======================================================
(PID.TID 0000.0001) >#
(PID.TID 0000.0001) ># ********************************
(PID.TID 0000.0001) ># Off-line optimization parameters
(PID.TID 0000.0001) ># ********************************
(PID.TID 0000.0001) > &OPTIM
(PID.TID 0000.0001) > optimcycle=0,
(PID.TID 0000.0001) > /
(PID.TID 0000.0001) 
(PID.TID 0000.0001) OPTIM_READPARMS: finished reading data.optim
(PID.TID 0000.0001) CTRL_READPARMS: opening data.ctrl
(PID.TID 0000.0001)  OPEN_COPY_DATA_FILE: opening file data.ctrl
(PID.TID 0000.0001) // =======================================================
(PID.TID 0000.0001) // Parameter file "data.ctrl"
(PID.TID 0000.0001) // =======================================================
(PID.TID 0000.0001) ># *********************
(PID.TID 0000.0001) ># ECCO controlvariables
(PID.TID 0000.0001) ># *********************
(PID.TID 0000.0001) > &ctrl_nml
(PID.TID 0000.0001) > doSinglePrecTapelev=.TRUE.,
(PID.TID 0000.0001) > ctrlSmoothCorrel2D=.FALSE.,
(PID.TID 0000.0001) > ctrlSmoothCorrel3D=.FALSE.,
(PID.TID 0000.0001) > /
(PID.TID 0000.0001) >#
(PID.TID 0000.0001) ># *********************
(PID.TID 0000.0001) ># names for ctrl_pack/unpack
(PID.TID 0000.0001) ># *********************
(PID.TID 0000.0001) > &ctrl_packnames
(PID.TID 0000.0001) > /
(PID.TID 0000.0001) >#
(PID.TID 0000.0001) ># *********************
(PID.TID 0000.0001) ># names for CTRL_GENARR, CTRL_GENTIM
(PID.TID 0000.0001) ># *********************
(PID.TID 0000.0001) > &CTRL_NML_GENARR
(PID.TID 0000.0001) > xx_gentim2d_weight(1) = 'wt_atemp.data',
(PID.TID 0000.0001) > xx_gentim2d_file(1)='xx_atemp',
(PID.TID 0000.0001) > xx_gentim2d_period(1)=1209600.0,
(PID.TID 0000.0001) > mult_gentim2d(1) = 0.,
(PID.TID 0000.0001) >#
(PID.TID 0000.0001) > xx_gentim2d_weight(2) = 'wt_precip.data',
(PID.TID 0000.0001) > xx_gentim2d_file(2)='xx_precip',
(PID.TID 0000.0001) > xx_gentim2d_period(2)=1209600.0,
(PID.TID 0000.0001) > mult_gentim2d(2) = 0.,
(PID.TID 0000.0001) >#
(PID.TID 0000.0001) > xx_gentim2d_weight(3) = 'wt_swdown.data',
(PID.TID 0000.0001) > xx_gentim2d_file(3)='xx_swdown',
(PID.TID 0000.0001) > xx_gentim2d_period(3)=1209600.0,
(PID.TID 0000.0001) > mult_gentim2d(3) = 0.,
(PID.TID 0000.0001) >#
(PID.TID 0000.0001) > xx_genarr3d_weight(1) = 'wt_theta.data',
(PID.TID 0000.0001) > xx_genarr3d_file(1)='xx_theta',
(PID.TID 0000.0001) > xx_genarr3d_bounds(1:5,1)=-2.0,-1.9,39.,40.,0.,
(PID.TID 0000.0001) > mult_genarr3d(1) = 1.,
(PID.TID 0000.0001) >#
(PID.TID 0000.0001) > xx_genarr3d_weight(2) = 'wt_salt.data',
(PID.TID 0000.0001) > xx_genarr3d_file(2)='xx_salt',
(PID.TID 0000.0001) > xx_genarr3d_bounds(1:5,2)=29.,29.5,40.5,41.,0.,
(PID.TID 0000.0001) > mult_genarr3d(2) = 1.,
(PID.TID 0000.0001) >#
(PID.TID 0000.0001) > xx_genarr3d_weight(3) = 'wt_kapgm.data',
(PID.TID 0000.0001) > xx_genarr3d_file(3)='xx_kapgm',
(PID.TID 0000.0001) > xx_genarr3d_bounds(1:5,3)=1.E2,2.E2,0.9E4,1.E4,0.,
(PID.TID 0000.0001) > mult_genarr3d(3) = 1.,
(PID.TID 0000.0001) >#
(PID.TID 0000.0001) > /
(PID.TID 0000.0001) >
(PID.TID 0000.0001) 
(PID.TID 0000.0001) CTRL_READPARMS: finished reading data.ctrl
(PID.TID 0000.0001) COST_READPARMS: opening data.cost
(PID.TID 0000.0001)  OPEN_COPY_DATA_FILE: opening file data.cost
(PID.TID 0000.0001) // =======================================================
(PID.TID 0000.0001) // Parameter file "data.cost"
(PID.TID 0000.0001) // =======================================================
(PID.TID 0000.0001) >#
(PID.TID 0000.0001) >#
(PID.TID 0000.0001) ># ******************
(PID.TID 0000.0001) ># cost function
(PID.TID 0000.0001) ># ******************
(PID.TID 0000.0001) > &COST_NML
(PID.TID 0000.0001) > /
(PID.TID 0000.0001) 
(PID.TID 0000.0001) COST_READPARMS: finished reading data.cost
(PID.TID 0000.0001) ECCO_READPARMS: opening data.ecco
(PID.TID 0000.0001)  OPEN_COPY_DATA_FILE: opening file data.ecco
(PID.TID 0000.0001) // =======================================================
(PID.TID 0000.0001) // Parameter file "data.ecco"
(PID.TID 0000.0001) // =======================================================
(PID.TID 0000.0001) ># *******************
(PID.TID 0000.0001) ># ECCO cost functions
(PID.TID 0000.0001) ># *******************
(PID.TID 0000.0001) > &ECCO_COST_NML
(PID.TID 0000.0001) > /
(PID.TID 0000.0001) ># ***************************
(PID.TID 0000.0001) ># ECCO generic cost functions
(PID.TID 0000.0001) ># ***************************
(PID.TID 0000.0001) > &ECCO_GENCOST_NML
(PID.TID 0000.0001) > gencost_avgperiod(1)  = 'step',
(PID.TID 0000.0001) ># gencost_avgperiod(1)  = 'month',
(PID.TID 0000.0001) > gencost_barfile(1) = 'etastep',
(PID.TID 0000.0001) > gencost_datafile(1) = 'some_eta_step.bin',
(PID.TID 0000.0001) > gencost_errfile(1) = 'some_eta_sigma.bin',
(PID.TID 0000.0001) > gencost_name(1) = 'etastep',
(PID.TID 0000.0001) > gencost_spmin(1) = -999.,
(PID.TID 0000.0001) > gencost_spmax(1) = 999.,
(PID.TID 0000.0001) > gencost_spzero(1) = 0.,
(PID.TID 0000.0001) ># note : clim * preproc_i(1) = nTimeSteps <=> noclim
(PID.TID 0000.0001) > gencost_preproc(1,1)='clim',
(PID.TID 0000.0001) > gencost_preproc_i(1,1)=9,
(PID.TID 0000.0001) > gencost_posproc(1,1)='smooth',
(PID.TID 0000.0001) > gencost_posproc_c(1,1)='some_scale.bin',
(PID.TID 0000.0001) > gencost_posproc_i(1,1)=10,
(PID.TID 0000.0001) > gencost_outputlevel(1)=1,
(PID.TID 0000.0001) > mult_gencost(1) = 1.,
(PID.TID 0000.0001) >#
(PID.TID 0000.0001) > gencost_avgperiod(2)  = 'step',
(PID.TID 0000.0001) ># gencost_avgperiod(2)  = 'month',
(PID.TID 0000.0001) > gencost_barfile(2) = 'sststep',
(PID.TID 0000.0001) > gencost_datafile(2) = 'some_sst_step.bin',
(PID.TID 0000.0001) > gencost_errfile(2) = 'some_sst_sigma.bin',
(PID.TID 0000.0001) > gencost_name(2) = 'sststep',
(PID.TID 0000.0001) > gencost_spmin(2) = -999.,
(PID.TID 0000.0001) > gencost_spmax(2) = 999.,
(PID.TID 0000.0001) > gencost_spzero(2) = 0.,
(PID.TID 0000.0001) > gencost_posproc(1,2)='smooth',
(PID.TID 0000.0001) > gencost_posproc_c(1,2)='some_scale.bin',
(PID.TID 0000.0001) > gencost_posproc_i(1,2)=10,
(PID.TID 0000.0001) > gencost_outputlevel(2)=1,
(PID.TID 0000.0001) > mult_gencost(2) = 1.,
(PID.TID 0000.0001) >#
(PID.TID 0000.0001) > /
(PID.TID 0000.0001) >#
(PID.TID 0000.0001) 
(PID.TID 0000.0001) ECCO_READPARMS: finished reading #1: ecco_cost_nml
(PID.TID 0000.0001) ECCO_READPARMS: finished reading #2: ecco_gencost_nml
(PID.TID 0000.0001) ECCO_READPARMS: done
(PID.TID 0000.0001) PROFILES_READPARMS: opening data.profiles
(PID.TID 0000.0001)  OPEN_COPY_DATA_FILE: opening file data.profiles
(PID.TID 0000.0001) // =======================================================
(PID.TID 0000.0001) // Parameter file "data.profiles"
(PID.TID 0000.0001) // =======================================================
(PID.TID 0000.0001) >#
(PID.TID 0000.0001) ># ******************
(PID.TID 0000.0001) ># PROFILES cost function
(PID.TID 0000.0001) ># ******************
(PID.TID 0000.0001) > &PROFILES_NML
(PID.TID 0000.0001) > profilesDoGenGrid=.TRUE.,
(PID.TID 0000.0001) > profilesDir='profiles',
(PID.TID 0000.0001) >#
(PID.TID 0000.0001) > profilesfiles(1)= 'some_TS_atlas.sortedInTime',
(PID.TID 0000.0001) > mult_profiles(1,1)   = 1.,
(PID.TID 0000.0001) > mult_profiles(1,2)   = 1.,
(PID.TID 0000.0001) >#
(PID.TID 0000.0001) > /
(PID.TID 0000.0001) 
(PID.TID 0000.0001) PROFILES_READPARMS: finished reading data.profiles
(PID.TID 0000.0001)  DIAGNOSTICS_READPARMS: opening data.diagnostics
(PID.TID 0000.0001)  OPEN_COPY_DATA_FILE: opening file data.diagnostics
(PID.TID 0000.0001) // =======================================================
(PID.TID 0000.0001) // Parameter file "data.diagnostics"
(PID.TID 0000.0001) // =======================================================
(PID.TID 0000.0001) ># Diagnostic Package Choices
(PID.TID 0000.0001) >#-----------------
(PID.TID 0000.0001) ># for each output-stream:
(PID.TID 0000.0001) >#  filename(n) : prefix of the output file name (only 8.c long) for outp.stream n
(PID.TID 0000.0001) >#  frequency(n):< 0 : write snap-shot output every multiple of |frequency| (iter)
(PID.TID 0000.0001) >#               > 0 : write time-average output every multiple of frequency (iter)
(PID.TID 0000.0001) >#  levels(:,n) : list of levels to write to file (Notes: declared as REAL)
(PID.TID 0000.0001) >#                 when this entry is missing, select all common levels of this list
(PID.TID 0000.0001) >#  fields(:,n) : list of diagnostics fields (8.c) (see "available_diagnostics" file
(PID.TID 0000.0001) >#                 for the list of all available diag. in this particular config)
(PID.TID 0000.0001) >#--------------------------------------------------------------------
(PID.TID 0000.0001) >#
(PID.TID 0000.0001) > &diagnostics_list
(PID.TID 0000.0001) >#
(PID.TID 0000.0001) >   dumpatlast = .TRUE.,
(PID.TID 0000.0001) >#---
(PID.TID 0000.0001) >  frequency(1) = 2635200.0,
(PID.TID 0000.0001) >   fields(1:25,1) = 'ETAN    ','SIarea  ','SIheff ','SIhsnow ',
(PID.TID 0000.0001) >#stuff that is not quite state variables (and may not be quite
(PID.TID 0000.0001) >#synchroneous) but are added here to reduce number of files
(PID.TID 0000.0001) >                 'DETADT2 ','PHIBOT  ','sIceLoad',
(PID.TID 0000.0001) >                 'MXLDEPTH','oceSPDep',
(PID.TID 0000.0001) >                 'SIatmQnt','SIatmFW ','oceQnet ','oceFWflx',
(PID.TID 0000.0001) >                 'oceTAUX ','oceTAUY ',
(PID.TID 0000.0001) >                 'ADVxHEFF','ADVyHEFF','DFxEHEFF','DFyEHEFF',
(PID.TID 0000.0001) >                 'ADVxSNOW','ADVySNOW','DFxESNOW','DFyESNOW',
(PID.TID 0000.0001) >                 'SIuice  ','SIvice  ',
(PID.TID 0000.0001) >   filename(1) = 'state_2d_set1',
(PID.TID 0000.0001) >#  filename(1) = 'diags/state_2d_set1',
(PID.TID 0000.0001) >#---
(PID.TID 0000.0001) >  frequency(2) = 2635200.0,
(PID.TID 0000.0001) >   fields(1:3,2) = 'THETA   ','SALT    ',
(PID.TID 0000.0001) >#stuff that is not quite state variables (and may not be quite
(PID.TID 0000.0001) >#synchroneous) but are added here to reduce file number
(PID.TID 0000.0001) >                 'DRHODR  ',
(PID.TID 0000.0001) >#                'KPPviscA','KPPdiffT','KPPdiffTS',
(PID.TID 0000.0001) >#                'GGL90TKE','GGL90Lmx','GGL90Prl',
(PID.TID 0000.0001) >#                'GGL90ArU','GGL90ArV','GGL90Kr ',
(PID.TID 0000.0001) >   filename(2) = 'state_3d_set1',
(PID.TID 0000.0001) >#  filename(2) = 'diags/state_3d_set1',
(PID.TID 0000.0001) >#---
(PID.TID 0000.0001) >  frequency(3) = 2635200.0,
(PID.TID 0000.0001) >   fields(1:5,3) = 'UVELMASS','VVELMASS','WVELMASS',
(PID.TID 0000.0001) >                 'GM_PsiX ','GM_PsiY ',
(PID.TID 0000.0001) >#uvel is approximately uvelmass divided by initial hfac, so we dont output the former
(PID.TID 0000.0001) >#                'UVEL    ','VVEL    ','WVEL     ',
(PID.TID 0000.0001) >#full 3D temperature fluxes : 'DFxE_TH ','DFyE_TH ','DFrE_TH ','DFrI_TH ','ADVx_TH ','ADVy_TH ','ADVr_TH ',
(PID.TID 0000.0001) >#but for present computations I only need the vertically integrated horizontal components (see trsp_3d_set2)
(PID.TID 0000.0001) >   filename(3) = 'trsp_3d_set1',
(PID.TID 0000.0001) >#  filename(3) = 'diags/trsp_3d_set1',
(PID.TID 0000.0001) >#---
(PID.TID 0000.0001) >  frequency(4) = 2635200.0,
(PID.TID 0000.0001) >   fields(1:8,4) = 'DFxE_TH ','DFyE_TH ','ADVx_TH ','ADVy_TH ',
(PID.TID 0000.0001) >                 'DFxE_SLT','DFyE_SLT','ADVx_SLT','ADVy_SLT',
(PID.TID 0000.0001) >   filename(4) = 'trsp_3d_set2',
(PID.TID 0000.0001) >#vertically integrate fields we only use to compute vertically integr.
(PID.TID 0000.0001) >#meridional transports (also omit vertical transports, both to save space)
(PID.TID 0000.0001) >#---
(PID.TID 0000.0001) >  frequency(5) = -2635200.0,
(PID.TID 0000.0001) >   fields(1:6,5) = 'ETAN    ','SIheff  ','SIhsnow ',
(PID.TID 0000.0001) >                 'SIarea  ','sIceLoad','PHIBOT  ',
(PID.TID 0000.0001) >#  filename(5) = 'diags/budg2d_snap_set1',
(PID.TID 0000.0001) >   timePhase(5)= 0.,
(PID.TID 0000.0001) >   fileFlags(5) = 'D       ',
(PID.TID 0000.0001) >#---
(PID.TID 0000.0001) >  frequency(6) = -2635200.0,
(PID.TID 0000.0001) >   fields(1:2,6) = 'THETA   ','SALT    ',
(PID.TID 0000.0001) >#  filename(6) = 'diags/budg2d_snap_set2',
(PID.TID 0000.0001) >   timePhase(6)= 0.,
(PID.TID 0000.0001) >   fileFlags(6) = 'DI      ',
(PID.TID 0000.0001) >#---
(PID.TID 0000.0001) >  frequency(7) = 2635200.0,
(PID.TID 0000.0001) >   fields(1:7,7) = 'oceFWflx','SIatmFW ','TFLUX   ','SItflux ',
(PID.TID 0000.0001) >                   'SFLUX   ','oceQsw  ','oceSPflx',
(PID.TID 0000.0001) >#  filename(7) = 'diags/budg2d_zflux_set1',
(PID.TID 0000.0001) >   fileFlags(7) = 'D       ',
(PID.TID 0000.0001) >#---
(PID.TID 0000.0001) >  frequency(8) = 2635200.0,
(PID.TID 0000.0001) >   fields(1:13,8) ='UVELMASS','VVELMASS',
(PID.TID 0000.0001) >                 'ADVx_TH ','ADVy_TH ','DFxE_TH ','DFyE_TH ',
(PID.TID 0000.0001) >                 'ADVx_SLT','ADVy_SLT','DFxE_SLT','DFyE_SLT',
(PID.TID 0000.0001) >#the following are not transports but tendencies
(PID.TID 0000.0001) >                 'oceSPtnd','AB_gT   ','AB_gS   ',
(PID.TID 0000.0001) >#  filename(8) = 'diags/budg2d_hflux_set2',
(PID.TID 0000.0001) >   fileFlags(8) = 'DI      ',
(PID.TID 0000.0001) >#---
(PID.TID 0000.0001) >  frequency(9) = 2635200.0,
(PID.TID 0000.0001) >   fields(1:8,9) ='ADVxHEFF','ADVyHEFF','DFxEHEFF','DFyEHEFF',
(PID.TID 0000.0001) >                 'ADVxSNOW','ADVySNOW','DFxESNOW','DFyESNOW',
(PID.TID 0000.0001) >#  filename(9) = 'diags/budg2d_hflux_set1',
(PID.TID 0000.0001) >   fileFlags(9) = 'D       ',
(PID.TID 0000.0001) >#---
(PID.TID 0000.0001) ># this one is important because it activates the vertical advection diags
(PID.TID 0000.0001) >  frequency(10) = 2635200.0,
(PID.TID 0000.0001) >   fields(1:7,10) = 'ADVr_TH ','DFrE_TH ','DFrI_TH ',
(PID.TID 0000.0001) >                  'ADVr_SLT','DFrE_SLT','DFrI_SLT',
(PID.TID 0000.0001) >                  'WVELMASS',
(PID.TID 0000.0001) >#  filename(10) = 'diags/budg2d_zflux_set3_11',
(PID.TID 0000.0001) >   levels(1, 10)= 11.,
(PID.TID 0000.0001) >   fileFlags(10) = 'D       ',
(PID.TID 0000.0001) >#---
(PID.TID 0000.0001) >  frequency(11) = 2635200.0,
(PID.TID 0000.0001) >   fields(1:10,11) ='SRELAX  ','TRELAX  ','WTHMASS ','WSLTMASS',
(PID.TID 0000.0001) >                 'oceSflux','oceQnet ','SIatmQnt',
(PID.TID 0000.0001) >                 'SIaaflux','SIsnPrcp','SIacSubl',
(PID.TID 0000.0001) >#  filename(11) = 'diags/budg2d_zflux_set2',
(PID.TID 0000.0001) >   fileFlags(11) = 'D       ',
(PID.TID 0000.0001) >#---
(PID.TID 0000.0001) >  frequency(12) = 2635200.0,
(PID.TID 0000.0001) >   fields(1:13,12) ='UVELMASS','VVELMASS',
(PID.TID 0000.0001) >                 'ADVx_TH ','ADVy_TH ','DFxE_TH ','DFyE_TH ',
(PID.TID 0000.0001) >                 'ADVx_SLT','ADVy_SLT','DFxE_SLT','DFyE_SLT',
(PID.TID 0000.0001) >                 'oceSPtnd','AB_gT   ','AB_gS   ',
(PID.TID 0000.0001) >#  filename(12) = 'diags/budg2d_hflux_set3_11',
(PID.TID 0000.0001) >   levels(1:40,12) = 11.,12.,13.,14.,15.,16.,17.,18.,19.,20.,
(PID.TID 0000.0001) >                     21.,22.,23.,24.,25.,26.,27.,28.,29.,30.,
(PID.TID 0000.0001) >                     31.,32.,33.,34.,35.,36.,37.,38.,39.,40.,
(PID.TID 0000.0001) >                     41.,42.,43.,44.,45.,46.,47.,48.,49.,50.,
(PID.TID 0000.0001) >   fileFlags(12) = 'DI      ',
(PID.TID 0000.0001) >#---
(PID.TID 0000.0001) >  frequency(13) = -2635200.0,
(PID.TID 0000.0001) >   fields(1:2,13) = 'THETA   ','SALT    ',
(PID.TID 0000.0001) >#  filename(13) = 'diags/budg2d_snap_set3_11',
(PID.TID 0000.0001) >   timePhase(13)= 0.,
(PID.TID 0000.0001) >   levels(1:40,13) = 11.,12.,13.,14.,15.,16.,17.,18.,19.,20.,
(PID.TID 0000.0001) >                     21.,22.,23.,24.,25.,26.,27.,28.,29.,30.,
(PID.TID 0000.0001) >                     31.,32.,33.,34.,35.,36.,37.,38.,39.,40.,
(PID.TID 0000.0001) >                     41.,42.,43.,44.,45.,46.,47.,48.,49.,50.,
(PID.TID 0000.0001) >   fileFlags(13) = 'DI      ',
(PID.TID 0000.0001) >#---
(PID.TID 0000.0001) >  frequency(14) = 2635200.0,
(PID.TID 0000.0001) >   fields(1:8,14) = 'DFxE_TH ','DFyE_TH ','ADVx_TH ','ADVy_TH ',
(PID.TID 0000.0001) >                 'DFxE_SLT','DFyE_SLT','ADVx_SLT','ADVy_SLT',
(PID.TID 0000.0001) >#  filename(14) = 'diags/trsp_2d_set1',
(PID.TID 0000.0001) >#vertically integrate fields we only use to compute vertically integr.
(PID.TID 0000.0001) >#meridional transports (also omit vertical transports, both to save space)
(PID.TID 0000.0001) >   fileFlags(14) = ' I      ',
(PID.TID 0000.0001) >#---
(PID.TID 0000.0001) >  frequency(15) = 2635200.0,
(PID.TID 0000.0001) >   fields(1:3,15) = 'RHOAnoma','PHIHYD  ','oceSPtnd',
(PID.TID 0000.0001) >#  filename(15) = 'diags/state_3d_set2',
(PID.TID 0000.0001) >#---
(PID.TID 0000.0001) >  frequency(16) = 2635200.0,
(PID.TID 0000.0001) >   fields(1:7,16) = 'ADVr_TH ','DFrE_TH ','DFrI_TH ',
(PID.TID 0000.0001) >        'ADVr_SLT','DFrE_SLT','DFrI_SLT','WVELMASS',
(PID.TID 0000.0001) >#  filename(16) = 'diags/trsp_3d_set3',
(PID.TID 0000.0001) >#---
(PID.TID 0000.0001) >  frequency(17) = 2635200.0,
(PID.TID 0000.0001) >   fields(1:7,17) = 'TFLUX   ','SItflux ','SFLUX   ',
(PID.TID 0000.0001) >        'oceQsw  ','oceSPflx','SIsnPrcp','SIacSubl',
(PID.TID 0000.0001) >#  filename(17) = 'diags/state_2d_set2',
(PID.TID 0000.0001) >#---
(PID.TID 0000.0001) > /
(PID.TID 0000.0001) >#
(PID.TID 0000.0001) >#
(PID.TID 0000.0001) ># Parameter for Diagnostics of per level statistics:
(PID.TID 0000.0001) >#-----------------
(PID.TID 0000.0001) ># for each output-stream:
(PID.TID 0000.0001) >#  stat_fname(n) : prefix of the output file name (only 8.c long) for outp.stream n
(PID.TID 0000.0001) >#  stat_freq(n):< 0 : write snap-shot output every |stat_freq| seconds
(PID.TID 0000.0001) >#               > 0 : write time-average output every stat_freq seconds
(PID.TID 0000.0001) >#  stat_phase(n)    : write at time = stat_phase + multiple of |stat_freq|
(PID.TID 0000.0001) >#  stat_region(:,n) : list of "regions" (default: 1 region only=global)
(PID.TID 0000.0001) >#  stat_fields(:,n) : list of diagnostics fields (8.c) (see "available_diagnostics.log"
(PID.TID 0000.0001) >#                 file for the list of all available diag. in this particular config)
(PID.TID 0000.0001) >#-----------------
(PID.TID 0000.0001) > &DIAG_STATIS_PARMS
(PID.TID 0000.0001) ># diagSt_regMaskFile='basin_masks_eccollc_90x50.bin',
(PID.TID 0000.0001) ># nSetRegMskFile=1,
(PID.TID 0000.0001) ># set_regMask(1)= 1,  1,  1,  1,  1,  1,  1,  1,  1,
(PID.TID 0000.0001) >#                 1,  1,  1,  1,  1,  1,  1,  1
(PID.TID 0000.0001) ># val_regMask(1)= 1., 2., 3., 4., 5., 6., 7., 8., 9.,
(PID.TID 0000.0001) >#                10.,11.,12.,13.,14.,15.,16.,17.
(PID.TID 0000.0001) >##---
(PID.TID 0000.0001) ># stat_fields(1,1)= 'ETAN    ','ETANSQ  ','DETADT2 ',
(PID.TID 0000.0001) >#                   'UVEL    ','VVEL    ','WVEL    ',
(PID.TID 0000.0001) >#                   'THETA   ','SALT    ',
(PID.TID 0000.0001) >#    stat_fname(1)= 'dynStDiag',
(PID.TID 0000.0001) >#     stat_freq(1)= 3153600.,
(PID.TID 0000.0001) ># stat_region(1,1)=  1, 2, 3, 4, 5, 6, 7, 8, 9,
(PID.TID 0000.0001) >#                   10,11,12,13,14,15,16,17
(PID.TID 0000.0001) >##---
(PID.TID 0000.0001) ># stat_fields(1,2)= 'oceTAUX ','oceTAUY ',
(PID.TID 0000.0001) >#                   'surForcT','surForcS','TFLUX   ','SFLUX   ',
(PID.TID 0000.0001) >#                   'oceQnet ','oceSflux','oceFWflx',
(PID.TID 0000.0001) >#    stat_fname(2)= 'surfStDiag',
(PID.TID 0000.0001) >#     stat_freq(2)= 3153600.,
(PID.TID 0000.0001) ># stat_region(1,2)=  1, 2, 3, 4, 5, 6, 7, 8, 9,
(PID.TID 0000.0001) >#                   10,11,12,13,14,15,16,17
(PID.TID 0000.0001) > /
(PID.TID 0000.0001) 
(PID.TID 0000.0001) S/R DIAGNOSTICS_READPARMS, read namelist "diagnostics_list": start
(PID.TID 0000.0001) S/R DIAGNOSTICS_READPARMS, read namelist "diagnostics_list": OK
(PID.TID 0000.0001) S/R DIAGNOSTICS_READPARMS, read namelist "DIAG_STATIS_PARMS": start
(PID.TID 0000.0001) S/R DIAGNOSTICS_READPARMS, read namelist "DIAG_STATIS_PARMS": OK
(PID.TID 0000.0001)  DIAGNOSTICS_READPARMS: global parameter summary:
(PID.TID 0000.0001)  dumpAtLast = /* always write time-ave diags at the end */
(PID.TID 0000.0001)                   T
(PID.TID 0000.0001)     ;
(PID.TID 0000.0001)  diag_mnc =   /* write NetCDF output files */
(PID.TID 0000.0001)                   F
(PID.TID 0000.0001)     ;
(PID.TID 0000.0001)  useMissingValue = /* put MissingValue where mask = 0 */
(PID.TID 0000.0001)                   F
(PID.TID 0000.0001)     ;
(PID.TID 0000.0001)  diagCG_maxIters = /* max number of iters in diag_cg2d */
(PID.TID 0000.0001)                     300
(PID.TID 0000.0001)     ;
(PID.TID 0000.0001)  diagCG_resTarget = /* residual target for diag_cg2d */
(PID.TID 0000.0001)                 1.000000000000000E-07
(PID.TID 0000.0001)     ;
(PID.TID 0000.0001)  diagCG_pcOffDFac = /* preconditioner off-diagonal factor */
(PID.TID 0000.0001)                 9.611687812379854E-01
(PID.TID 0000.0001)     ;
(PID.TID 0000.0001) -----------------------------------------------------
(PID.TID 0000.0001)  DIAGNOSTICS_READPARMS: active diagnostics summary:
(PID.TID 0000.0001) -----------------------------------------------------
(PID.TID 0000.0001) Creating Output Stream: state_2d_set1
(PID.TID 0000.0001) Output Frequency:    2635200.000000 ; Phase:           0.000000
(PID.TID 0000.0001)  Averaging Freq.:    2635200.000000 , Phase:           0.000000 , Cycle:   1
(PID.TID 0000.0001)  missing value: -9.990000000000E+02
(PID.TID 0000.0001)  Levels:    will be set later
(PID.TID 0000.0001)  Fields:    ETAN     SIarea   SIheff   SIhsnow  DETADT2  PHIBOT   sIceLoad MXLDEPTH oceSPDep SIatmQnt
(PID.TID 0000.0001)  Fields:    SIatmFW  oceQnet  oceFWflx oceTAUX  oceTAUY  ADVxHEFF ADVyHEFF DFxEHEFF DFyEHEFF ADVxSNOW
(PID.TID 0000.0001)  Fields:    ADVySNOW DFxESNOW DFyESNOW SIuice   SIvice
(PID.TID 0000.0001) Creating Output Stream: state_3d_set1
(PID.TID 0000.0001) Output Frequency:    2635200.000000 ; Phase:           0.000000
(PID.TID 0000.0001)  Averaging Freq.:    2635200.000000 , Phase:           0.000000 , Cycle:   1
(PID.TID 0000.0001)  missing value: -9.990000000000E+02
(PID.TID 0000.0001)  Levels:    will be set later
(PID.TID 0000.0001)  Fields:    THETA    SALT     DRHODR
(PID.TID 0000.0001) Creating Output Stream: trsp_3d_set1
(PID.TID 0000.0001) Output Frequency:    2635200.000000 ; Phase:           0.000000
(PID.TID 0000.0001)  Averaging Freq.:    2635200.000000 , Phase:           0.000000 , Cycle:   1
(PID.TID 0000.0001)  missing value: -9.990000000000E+02
(PID.TID 0000.0001)  Levels:    will be set later
(PID.TID 0000.0001)  Fields:    UVELMASS VVELMASS WVELMASS GM_PsiX  GM_PsiY
(PID.TID 0000.0001) Creating Output Stream: trsp_3d_set2
(PID.TID 0000.0001) Output Frequency:    2635200.000000 ; Phase:           0.000000
(PID.TID 0000.0001)  Averaging Freq.:    2635200.000000 , Phase:           0.000000 , Cycle:   1
(PID.TID 0000.0001)  missing value: -9.990000000000E+02
(PID.TID 0000.0001)  Levels:    will be set later
(PID.TID 0000.0001)  Fields:    DFxE_TH  DFyE_TH  ADVx_TH  ADVy_TH  DFxE_SLT DFyE_SLT ADVx_SLT ADVy_SLT
(PID.TID 0000.0001) -----------------------------------------------------
(PID.TID 0000.0001)  DIAGNOSTICS_READPARMS: statistics diags. summary:
(PID.TID 0000.0001) -----------------------------------------------------
(PID.TID 0000.0001) 
(PID.TID 0000.0001) SET_PARMS: done
==> SYSTEM CALL (from INI_MODEL_IO): > mkdir -p profiles <
(PID.TID 0000.0001) Enter INI_VERTICAL_GRID: setInterFDr=    T ; setCenterDr=    F
(PID.TID 0000.0001) tile:   1 ; Read from file grid_cs32.face001.bin
(PID.TID 0000.0001)   => xC yC dxF dyF rA xG yG dxV dyU rAz dxC dyC rAw rAs dxG dyG AngleCS AngleSN
(PID.TID 0000.0001) %MON XC_max                       =   1.7854351589505E+02
(PID.TID 0000.0001) %MON XC_min                       =  -1.7854351589505E+02
(PID.TID 0000.0001) %MON XC_mean                      =   2.0724163126336E-15
(PID.TID 0000.0001) %MON XC_sd                        =   1.0355545336287E+02
(PID.TID 0000.0001) %MON XG_max                       =   1.8000000000000E+02
(PID.TID 0000.0001) %MON XG_min                       =  -1.7708797161002E+02
(PID.TID 0000.0001) %MON XG_mean                      =   1.8603515625000E+00
(PID.TID 0000.0001) %MON XG_sd                        =   1.0357130300504E+02
(PID.TID 0000.0001) %MON DXC_max                      =   3.2375185836900E+05
(PID.TID 0000.0001) %MON DXC_min                      =   1.1142031410131E+05
(PID.TID 0000.0001) %MON DXC_mean                     =   2.8605689051214E+05
(PID.TID 0000.0001) %MON DXC_sd                       =   3.4042087138252E+04
(PID.TID 0000.0001) %MON DXF_max                      =   3.2369947500827E+05
(PID.TID 0000.0001) %MON DXF_min                      =   1.2020820513318E+05
(PID.TID 0000.0001) %MON DXF_mean                     =   2.8605437324820E+05
(PID.TID 0000.0001) %MON DXF_sd                       =   3.4050524252539E+04
(PID.TID 0000.0001) %MON DXG_max                      =   3.2375195872773E+05
(PID.TID 0000.0001) %MON DXG_min                      =   1.0098378008791E+05
(PID.TID 0000.0001) %MON DXG_mean                     =   2.8603818508931E+05
(PID.TID 0000.0001) %MON DXG_sd                       =   3.4140406908005E+04
(PID.TID 0000.0001) %MON DXV_max                      =   3.2380418162750E+05
(PID.TID 0000.0001) %MON DXV_min                      =   8.0152299824136E+04
(PID.TID 0000.0001) %MON DXV_mean                     =   2.8603970633619E+05
(PID.TID 0000.0001) %MON DXV_sd                       =   3.4145142117723E+04
(PID.TID 0000.0001) %MON YC_max                       =   8.7940663871962E+01
(PID.TID 0000.0001) %MON YC_min                       =  -8.7940663871962E+01
(PID.TID 0000.0001) %MON YC_mean                      =   1.1842378929335E-15
(PID.TID 0000.0001) %MON YC_sd                        =   3.8676242969072E+01
(PID.TID 0000.0001) %MON YG_max                       =   9.0000000000000E+01
(PID.TID 0000.0001) %MON YG_min                       =  -9.0000000000000E+01
(PID.TID 0000.0001) %MON YG_mean                      =   2.9605947323338E-15
(PID.TID 0000.0001) %MON YG_sd                        =   3.8676895860710E+01
(PID.TID 0000.0001) %MON DYC_max                      =   3.2375185836900E+05
(PID.TID 0000.0001) %MON DYC_min                      =   1.1142031410131E+05
(PID.TID 0000.0001) %MON DYC_mean                     =   2.8605689051214E+05
(PID.TID 0000.0001) %MON DYC_sd                       =   3.4042087138252E+04
(PID.TID 0000.0001) %MON DYF_max                      =   3.2369947500827E+05
(PID.TID 0000.0001) %MON DYF_min                      =   1.2020820513318E+05
(PID.TID 0000.0001) %MON DYF_mean                     =   2.8605437324820E+05
(PID.TID 0000.0001) %MON DYF_sd                       =   3.4050524252539E+04
(PID.TID 0000.0001) %MON DYG_max                      =   3.2375195872773E+05
(PID.TID 0000.0001) %MON DYG_min                      =   1.0098378008791E+05
(PID.TID 0000.0001) %MON DYG_mean                     =   2.8603818508931E+05
(PID.TID 0000.0001) %MON DYG_sd                       =   3.4140406908005E+04
(PID.TID 0000.0001) %MON DYU_max                      =   3.2380418162750E+05
(PID.TID 0000.0001) %MON DYU_min                      =   8.0152299824136E+04
(PID.TID 0000.0001) %MON DYU_mean                     =   2.8603970633619E+05
(PID.TID 0000.0001) %MON DYU_sd                       =   3.4145142117723E+04
(PID.TID 0000.0001) %MON RA_max                       =   1.0479260248419E+11
(PID.TID 0000.0001) %MON RA_min                       =   1.4019007022556E+10
(PID.TID 0000.0001) %MON RA_mean                      =   8.2992246709265E+10
(PID.TID 0000.0001) %MON RA_sd                        =   1.7509089299457E+10
(PID.TID 0000.0001) %MON RAW_max                      =   1.0480965274559E+11
(PID.TID 0000.0001) %MON RAW_min                      =   1.2166903467143E+10
(PID.TID 0000.0001) %MON RAW_mean                     =   8.2992246709235E+10
(PID.TID 0000.0001) %MON RAW_sd                       =   1.7481917919656E+10
(PID.TID 0000.0001) %MON RAS_max                      =   1.0480965274559E+11
(PID.TID 0000.0001) %MON RAS_min                      =   1.2166903467143E+10
(PID.TID 0000.0001) %MON RAS_mean                     =   8.2992246709235E+10
(PID.TID 0000.0001) %MON RAS_sd                       =   1.7481917919656E+10
(PID.TID 0000.0001) %MON RAZ_max                      =   1.0484349334619E+11
(PID.TID 0000.0001) %MON RAZ_min                      =   8.8317900612505E+09
(PID.TID 0000.0001) %MON RAZ_mean                     =   8.2992246709235E+10
(PID.TID 0000.0001) %MON RAZ_sd                       =   1.7482297311044E+10
(PID.TID 0000.0001) %MON AngleCS_max                  =   9.9999994756719E-01
(PID.TID 0000.0001) %MON AngleCS_min                  =  -9.9968286884824E-01
(PID.TID 0000.0001) %MON AngleCS_mean                 =   3.3078850405987E-01
(PID.TID 0000.0001) %MON AngleCS_sd                   =   6.2496317138039E-01
(PID.TID 0000.0001) %MON AngleSN_max                  =   9.9968286884824E-01
(PID.TID 0000.0001) %MON AngleSN_min                  =  -9.9999994756719E-01
(PID.TID 0000.0001) %MON AngleSN_mean                 =  -3.3078850405987E-01
(PID.TID 0000.0001) %MON AngleSN_sd                   =   6.2496317138039E-01
(PID.TID 0000.0001) 
(PID.TID 0000.0001) // =======================================================
(PID.TID 0000.0001) // Calendar configuration >>> START <<<
(PID.TID 0000.0001) // =======================================================
(PID.TID 0000.0001) 
(PID.TID 0000.0001) modelstart = /* Start time of the model integration [s] */
(PID.TID 0000.0001)                 0.000000000000000E+00
(PID.TID 0000.0001)     ;
(PID.TID 0000.0001) modelend  = /* End time of the model integration [s] */
(PID.TID 0000.0001)                 2.880000000000000E+04
(PID.TID 0000.0001)     ;
(PID.TID 0000.0001) modelStep = /* Time interval for a model forward step [s] */
(PID.TID 0000.0001)                 3.600000000000000E+03
(PID.TID 0000.0001)     ;
(PID.TID 0000.0001) usingGregorianCalendar= /* Calendar Type: Gregorian Calendar */
(PID.TID 0000.0001)                   T
(PID.TID 0000.0001)     ;
(PID.TID 0000.0001) usingJulianCalendar = /* Calendar Type: Julian Calendar */
(PID.TID 0000.0001)                   F
(PID.TID 0000.0001)     ;
(PID.TID 0000.0001) usingNoLeapYearCal  = /* Calendar Type: without Leap Year */
(PID.TID 0000.0001)                   F
(PID.TID 0000.0001)     ;
(PID.TID 0000.0001) usingModelCalendar  = /* Calendar Type: Model Calendar */
(PID.TID 0000.0001)                   F
(PID.TID 0000.0001)     ;
(PID.TID 0000.0001) modelStartDate YYYYMMDD = /* Model start date YYYY-MM-DD */
(PID.TID 0000.0001)                19480101
(PID.TID 0000.0001)     ;
(PID.TID 0000.0001)   modelStartDate HHMMSS = /* Model start date HH-MM-SS  */
(PID.TID 0000.0001)                  120000
(PID.TID 0000.0001)     ;
(PID.TID 0000.0001) modelEndDate   YYYYMMDD = /* Model end date YYYY-MM-DD */
(PID.TID 0000.0001)                19480101
(PID.TID 0000.0001)     ;
(PID.TID 0000.0001)   modelEndDate   HHMMSS = /* Model end date HH-MM-SS  */
(PID.TID 0000.0001)                  200000
(PID.TID 0000.0001)     ;
(PID.TID 0000.0001) intyears = /* Number of calendar years affected by the integration */
(PID.TID 0000.0001)                       1
(PID.TID 0000.0001)     ;
(PID.TID 0000.0001) intmonths= /* Number of calendar months affected by the integration */
(PID.TID 0000.0001)                       1
(PID.TID 0000.0001)     ;
(PID.TID 0000.0001) intdays = /* Number of calendar days affected by the integration */
(PID.TID 0000.0001)                       1
(PID.TID 0000.0001)     ;
(PID.TID 0000.0001) modelIter0 = /* Base timestep number  */
(PID.TID 0000.0001)                       0
(PID.TID 0000.0001)     ;
(PID.TID 0000.0001) modelIterEnd = /* Final timestep number  */
(PID.TID 0000.0001)                       8
(PID.TID 0000.0001)     ;
(PID.TID 0000.0001) modelIntSteps= /* Number of model timesteps  */
(PID.TID 0000.0001)                       8
(PID.TID 0000.0001)     ;
(PID.TID 0000.0001) 
(PID.TID 0000.0001) // =======================================================
(PID.TID 0000.0001) // Calendar configuration  >>> END <<<
(PID.TID 0000.0001) // =======================================================
(PID.TID 0000.0001) 
(PID.TID 0000.0001) GAD_INIT_FIXED: GAD_OlMinSize=  2  0  2
(PID.TID 0000.0001) 
(PID.TID 0000.0001) // ===================================
(PID.TID 0000.0001) // GAD parameters :
(PID.TID 0000.0001) // ===================================
(PID.TID 0000.0001) tempAdvScheme =   /* Temp. Horiz.Advection scheme selector */
(PID.TID 0000.0001)                      33
(PID.TID 0000.0001)     ;
(PID.TID 0000.0001) tempVertAdvScheme =   /* Temp. Vert. Advection scheme selector */
(PID.TID 0000.0001)                      33
(PID.TID 0000.0001)     ;
(PID.TID 0000.0001) tempMultiDimAdvec =   /* use Muti-Dim Advec method for Temp */
(PID.TID 0000.0001)                   T
(PID.TID 0000.0001)     ;
(PID.TID 0000.0001) tempSOM_Advection = /* use 2nd Order Moment Advection for Temp */
(PID.TID 0000.0001)                   F
(PID.TID 0000.0001)     ;
(PID.TID 0000.0001) AdamsBashforthGt = /* apply Adams-Bashforth extrapolation on Gt */
(PID.TID 0000.0001)                   F
(PID.TID 0000.0001)     ;
(PID.TID 0000.0001) AdamsBashforth_T = /* apply Adams-Bashforth extrapolation on Temp */
(PID.TID 0000.0001)                   F
(PID.TID 0000.0001)     ;
(PID.TID 0000.0001) saltAdvScheme =   /* Salt. Horiz.advection scheme selector */
(PID.TID 0000.0001)                      33
(PID.TID 0000.0001)     ;
(PID.TID 0000.0001) saltVertAdvScheme =   /* Salt. Vert. Advection scheme selector */
(PID.TID 0000.0001)                      33
(PID.TID 0000.0001)     ;
(PID.TID 0000.0001) saltMultiDimAdvec =   /* use Muti-Dim Advec method for Salt */
(PID.TID 0000.0001)                   T
(PID.TID 0000.0001)     ;
(PID.TID 0000.0001) saltSOM_Advection = /* use 2nd Order Moment Advection for Salt */
(PID.TID 0000.0001)                   F
(PID.TID 0000.0001)     ;
(PID.TID 0000.0001) AdamsBashforthGs = /* apply Adams-Bashforth extrapolation on Gs */
(PID.TID 0000.0001)                   F
(PID.TID 0000.0001)     ;
(PID.TID 0000.0001) AdamsBashforth_S = /* apply Adams-Bashforth extrapolation on Salt */
[...]
(PID.TID 0000.0001) %MON surfExpan_theta_mean         =   6.8433818504119E-06
(PID.TID 0000.0001) %MON surfExpan_salt_mean          =  -1.1312465444138E-07
(PID.TID 0000.0001) // =======================================================
(PID.TID 0000.0001) // End MONITOR dynamic field statistics
(PID.TID 0000.0001) // =======================================================
(PID.TID 0000.0001) // =======================================================
(PID.TID 0000.0001) // Begin MONITOR SEAICE statistics
(PID.TID 0000.0001) // =======================================================
(PID.TID 0000.0001) %MON seaice_tsnumber              =                     8
(PID.TID 0000.0001) %MON seaice_time_sec              =   2.8800000000000E+04
(PID.TID 0000.0001) %MON seaice_uice_max              =   4.0000000000000E-01
(PID.TID 0000.0001) %MON seaice_uice_min              =  -4.0000000000000E-01
(PID.TID 0000.0001) %MON seaice_uice_mean             =  -2.0133374305281E-02
(PID.TID 0000.0001) %MON seaice_uice_sd               =   1.9404387154286E-01
(PID.TID 0000.0001) %MON seaice_uice_del2             =   2.4061431243531E-03
(PID.TID 0000.0001) %MON seaice_vice_max              =   4.0000000000000E-01
(PID.TID 0000.0001) %MON seaice_vice_min              =  -4.0000000000000E-01
(PID.TID 0000.0001) %MON seaice_vice_mean             =  -5.6049065124398E-02
(PID.TID 0000.0001) %MON seaice_vice_sd               =   1.9399514289143E-01
(PID.TID 0000.0001) %MON seaice_vice_del2             =   2.4455372350648E-03
(PID.TID 0000.0001) %MON seaice_area_max              =   1.6094594660819E-01
(PID.TID 0000.0001) %MON seaice_area_min              =   0.0000000000000E+00
(PID.TID 0000.0001) %MON seaice_area_mean             =   3.4325598997135E-03
(PID.TID 0000.0001) %MON seaice_area_sd               =   1.8029646151337E-02
(PID.TID 0000.0001) %MON seaice_area_del2             =   1.6698899920910E-04
(PID.TID 0000.0001) %MON seaice_heff_max              =   7.3384650187378E-02
(PID.TID 0000.0001) %MON seaice_heff_min              =   0.0000000000000E+00
(PID.TID 0000.0001) %MON seaice_heff_mean             =   1.4328465764613E-03
(PID.TID 0000.0001) %MON seaice_heff_sd               =   7.8714509139441E-03
(PID.TID 0000.0001) %MON seaice_heff_del2             =   6.9776505420926E-05
(PID.TID 0000.0001) %MON seaice_hsnow_max             =   1.0283212758802E-04
(PID.TID 0000.0001) %MON seaice_hsnow_min             =   0.0000000000000E+00
(PID.TID 0000.0001) %MON seaice_hsnow_mean            =   8.8450523665921E-07
(PID.TID 0000.0001) %MON seaice_hsnow_sd              =   5.6026164537665E-06
(PID.TID 0000.0001) %MON seaice_hsnow_del2            =   9.2324391948458E-08
(PID.TID 0000.0001) // =======================================================
(PID.TID 0000.0001) // End MONITOR SEAICE statistics
(PID.TID 0000.0001) // =======================================================
(PID.TID 0000.0001) %CHECKPOINT         8 ckptA
(PID.TID 0000.0001) 
(PID.TID 0000.0001) == cost_profiles: begin ==
(PID.TID 0000.0001)  cost_profiles( 1, 1)=  0.13497D+04 0.18579D+06
(PID.TID 0000.0001)  cost_profiles( 1, 2)=  0.22926D+05 0.18579D+06
(PID.TID 0000.0001) == cost_profiles: end   ==
(PID.TID 0000.0001) 
 --> f_profiles = 0.134971837814104D+04 1 1
 --> f_profiles = 0.229261477966039D+05 1 2
 --> f_profiles = 0.000000000000000D+00 1 3
 --> f_profiles = 0.000000000000000D+00 1 4
 --> f_profiles = 0.000000000000000D+00 1 5
 --> f_profiles = 0.000000000000000D+00 1 6
 --> f_gencost = 0.399724781081832D+05 1
 --> f_gencost = 0.399343017280283D+05 2
 --> f_gentim2d = 0.000000000000000D+00 1
 --> f_gentim2d = 0.000000000000000D+00 2
 --> f_gentim2d = 0.000000000000000D+00 3
 --> f_genarr3d = 0.000000000000000D+00 1
 --> f_genarr3d = 0.000000000000000D+00 2
 --> f_genarr3d = 0.000000000000000D+00 3
 --> fc               = 0.799067798362115D+05
  early fc =  0.000000000000000D+00
  local fc =  0.438838221371810D+04
 global fc =  0.104182646010956D+06
(PID.TID 0000.0001)   Seconds in section "ALL                    [THE_MODEL_MAIN]":
(PID.TID 0000.0001)           User time:   6.4700000000000006
(PID.TID 0000.0001)         System time:  0.69000000000000006
(PID.TID 0000.0001)     Wall clock time:   14.264727115631104
(PID.TID 0000.0001)          No. starts:           1
(PID.TID 0000.0001)           No. stops:           1
(PID.TID 0000.0001)   Seconds in section "INITIALISE_FIXED       [THE_MODEL_MAIN]":
(PID.TID 0000.0001)           User time:  0.60000000000000009
(PID.TID 0000.0001)         System time:  0.12000000000000000
(PID.TID 0000.0001)     Wall clock time:   3.4833769798278809
(PID.TID 0000.0001)          No. starts:           1
(PID.TID 0000.0001)           No. stops:           1
(PID.TID 0000.0001)   Seconds in section "THE_MAIN_LOOP          [THE_MODEL_MAIN]":
(PID.TID 0000.0001)           User time:   5.8700000000000001
(PID.TID 0000.0001)         System time:  0.57000000000000006
(PID.TID 0000.0001)     Wall clock time:   10.781194210052490
(PID.TID 0000.0001)          No. starts:           1
(PID.TID 0000.0001)           No. stops:           1
(PID.TID 0000.0001)   Seconds in section "INITIALISE_VARIA    [THE_MAIN_LOOP]":
(PID.TID 0000.0001)           User time:  0.71999999999999986
(PID.TID 0000.0001)         System time:  5.99999999999999978E-002
(PID.TID 0000.0001)     Wall clock time:   1.6970231533050537
(PID.TID 0000.0001)          No. starts:           1
(PID.TID 0000.0001)           No. stops:           1
(PID.TID 0000.0001)   Seconds in section "MAIN LOOP           [THE_MAIN_LOOP]":
(PID.TID 0000.0001)           User time:   5.1500000000000004
(PID.TID 0000.0001)         System time:  0.51000000000000001
(PID.TID 0000.0001)     Wall clock time:   9.0841071605682373
(PID.TID 0000.0001)          No. starts:           1
(PID.TID 0000.0001)           No. stops:           1
(PID.TID 0000.0001)   Seconds in section "COST_AVERAGESFIELDS [MAIN_DO_LOOP]":
(PID.TID 0000.0001)           User time:  6.99999999999993960E-002
(PID.TID 0000.0001)         System time:   0.0000000000000000
(PID.TID 0000.0001)     Wall clock time:  0.41530990600585938
(PID.TID 0000.0001)          No. starts:           8
(PID.TID 0000.0001)           No. stops:           8
(PID.TID 0000.0001)   Seconds in section "PROFILES_INLOOP    [MAIN_DO_LOOP]":
(PID.TID 0000.0001)           User time:  5.00000000000007105E-002
(PID.TID 0000.0001)         System time:   0.0000000000000000
(PID.TID 0000.0001)     Wall clock time:  4.58409786224365234E-002
(PID.TID 0000.0001)          No. starts:           8
(PID.TID 0000.0001)           No. stops:           8
(PID.TID 0000.0001)   Seconds in section "MAIN_DO_LOOP        [THE_MAIN_LOOP]":
(PID.TID 0000.0001)           User time:   4.7999999999999998
(PID.TID 0000.0001)         System time:  0.45999999999999996
(PID.TID 0000.0001)     Wall clock time:   7.6243610382080078
(PID.TID 0000.0001)          No. starts:           8
(PID.TID 0000.0001)           No. stops:           8
(PID.TID 0000.0001)   Seconds in section "FORWARD_STEP        [MAIN_DO_LOOP]":
(PID.TID 0000.0001)           User time:   4.7999999999999998
(PID.TID 0000.0001)         System time:  0.45999999999999996
(PID.TID 0000.0001)     Wall clock time:   7.6240937709808350
(PID.TID 0000.0001)          No. starts:           8
(PID.TID 0000.0001)           No. stops:           8
(PID.TID 0000.0001)   Seconds in section "UPDATE_R_STAR       [FORWARD_STEP]":
(PID.TID 0000.0001)           User time:  4.00000000000009237E-002
(PID.TID 0000.0001)         System time:   0.0000000000000000
(PID.TID 0000.0001)     Wall clock time:  6.73785209655761719E-002
(PID.TID 0000.0001)          No. starts:          16
(PID.TID 0000.0001)           No. stops:          16
(PID.TID 0000.0001)   Seconds in section "DO_STATEVARS_DIAGS  [FORWARD_STEP]":
(PID.TID 0000.0001)           User time:  9.99999999999978684E-003
(PID.TID 0000.0001)         System time:  1.00000000000000089E-002
(PID.TID 0000.0001)     Wall clock time:  2.31997966766357422E-002
(PID.TID 0000.0001)          No. starts:          24
(PID.TID 0000.0001)           No. stops:          24
(PID.TID 0000.0001)   Seconds in section "LOAD_FIELDS_DRIVER  [FORWARD_STEP]":
(PID.TID 0000.0001)           User time:  8.99999999999998579E-002
(PID.TID 0000.0001)         System time:  3.00000000000000266E-002
(PID.TID 0000.0001)     Wall clock time:  0.11736488342285156
(PID.TID 0000.0001)          No. starts:           8
(PID.TID 0000.0001)           No. stops:           8
(PID.TID 0000.0001)   Seconds in section "EXF_GETFORCING     [LOAD_FLDS_DRIVER]":
(PID.TID 0000.0001)           User time:  8.00000000000000711E-002
(PID.TID 0000.0001)         System time:  3.00000000000000266E-002
(PID.TID 0000.0001)     Wall clock time:  0.10642504692077637
(PID.TID 0000.0001)          No. starts:           8
(PID.TID 0000.0001)           No. stops:           8
(PID.TID 0000.0001)   Seconds in section "EXTERNAL_FLDS_LOAD [LOAD_FLDS_DRIVER]":
(PID.TID 0000.0001)           User time:   0.0000000000000000
(PID.TID 0000.0001)         System time:   0.0000000000000000
(PID.TID 0000.0001)     Wall clock time:  1.60455703735351563E-004
(PID.TID 0000.0001)          No. starts:           8
(PID.TID 0000.0001)           No. stops:           8
(PID.TID 0000.0001)   Seconds in section "DO_ATMOSPHERIC_PHYS [FORWARD_STEP]":
(PID.TID 0000.0001)           User time:   0.0000000000000000
(PID.TID 0000.0001)         System time:   0.0000000000000000
(PID.TID 0000.0001)     Wall clock time:  2.84695625305175781E-003
(PID.TID 0000.0001)          No. starts:           8
(PID.TID 0000.0001)           No. stops:           8
(PID.TID 0000.0001)   Seconds in section "DO_OCEANIC_PHYS     [FORWARD_STEP]":
(PID.TID 0000.0001)           User time:   1.1299999999999999
(PID.TID 0000.0001)         System time:  5.99999999999998312E-002
(PID.TID 0000.0001)     Wall clock time:   1.1714220046997070
(PID.TID 0000.0001)          No. starts:           8
(PID.TID 0000.0001)           No. stops:           8
(PID.TID 0000.0001)   Seconds in section "SEAICE_MODEL    [DO_OCEANIC_PHYS]":
(PID.TID 0000.0001)           User time:  8.00000000000000711E-002
(PID.TID 0000.0001)         System time:   0.0000000000000000
(PID.TID 0000.0001)     Wall clock time:  8.92641544342041016E-002
(PID.TID 0000.0001)          No. starts:           8
(PID.TID 0000.0001)           No. stops:           8
(PID.TID 0000.0001)   Seconds in section "SEAICE_DYNSOLVER   [SEAICE_MODEL]":
(PID.TID 0000.0001)           User time:  8.00000000000000711E-002
(PID.TID 0000.0001)         System time:   0.0000000000000000
(PID.TID 0000.0001)     Wall clock time:  6.27508163452148438E-002
(PID.TID 0000.0001)          No. starts:           8
(PID.TID 0000.0001)           No. stops:           8
(PID.TID 0000.0001)   Seconds in section "GGL90_CALC [DO_OCEANIC_PHYS]":
(PID.TID 0000.0001)           User time:  0.25000000000000000
(PID.TID 0000.0001)         System time:   0.0000000000000000
(PID.TID 0000.0001)     Wall clock time:  0.26070523262023926
(PID.TID 0000.0001)          No. starts:           8
(PID.TID 0000.0001)           No. stops:           8
(PID.TID 0000.0001)   Seconds in section "DYNAMICS            [FORWARD_STEP]":
(PID.TID 0000.0001)           User time:  0.81000000000000139
(PID.TID 0000.0001)         System time:   0.0000000000000000
(PID.TID 0000.0001)     Wall clock time:  0.81415367126464844
(PID.TID 0000.0001)          No. starts:           8
(PID.TID 0000.0001)           No. stops:           8
(PID.TID 0000.0001)   Seconds in section "UPDATE_CG2D         [FORWARD_STEP]":
(PID.TID 0000.0001)           User time:  0.15000000000000036
(PID.TID 0000.0001)         System time:  0.10000000000000009
(PID.TID 0000.0001)     Wall clock time:  0.23891305923461914
(PID.TID 0000.0001)          No. starts:           8
(PID.TID 0000.0001)           No. stops:           8
(PID.TID 0000.0001)   Seconds in section "SOLVE_FOR_PRESSURE  [FORWARD_STEP]":
(PID.TID 0000.0001)           User time:  8.99999999999989697E-002
(PID.TID 0000.0001)         System time:  1.00000000000000089E-002
(PID.TID 0000.0001)     Wall clock time:  0.10463547706604004
(PID.TID 0000.0001)          No. starts:           8
(PID.TID 0000.0001)           No. stops:           8
(PID.TID 0000.0001)   Seconds in section "MOM_CORRECTION_STEP [FORWARD_STEP]":
(PID.TID 0000.0001)           User time:  1.99999999999995737E-002
(PID.TID 0000.0001)         System time:   0.0000000000000000
(PID.TID 0000.0001)     Wall clock time:  1.44352912902832031E-002
(PID.TID 0000.0001)          No. starts:           8
(PID.TID 0000.0001)           No. stops:           8
(PID.TID 0000.0001)   Seconds in section "INTEGR_CONTINUITY   [FORWARD_STEP]":
(PID.TID 0000.0001)           User time:  3.00000000000002487E-002
(PID.TID 0000.0001)         System time:   0.0000000000000000
(PID.TID 0000.0001)     Wall clock time:  3.71427536010742188E-002
(PID.TID 0000.0001)          No. starts:           8
(PID.TID 0000.0001)           No. stops:           8
(PID.TID 0000.0001)   Seconds in section "CALC_R_STAR         [FORWARD_STEP]":
(PID.TID 0000.0001)           User time:   0.0000000000000000
(PID.TID 0000.0001)         System time:   0.0000000000000000
(PID.TID 0000.0001)     Wall clock time:  3.83853912353515625E-003
(PID.TID 0000.0001)          No. starts:           8
(PID.TID 0000.0001)           No. stops:           8
(PID.TID 0000.0001)   Seconds in section "BLOCKING_EXCHANGES  [FORWARD_STEP]":
(PID.TID 0000.0001)           User time:  0.24000000000000199
(PID.TID 0000.0001)         System time:  0.11000000000000010
(PID.TID 0000.0001)     Wall clock time:  0.35792589187622070
(PID.TID 0000.0001)          No. starts:          16
(PID.TID 0000.0001)           No. stops:          16
(PID.TID 0000.0001)   Seconds in section "THERMODYNAMICS      [FORWARD_STEP]":
(PID.TID 0000.0001)           User time:  0.99999999999999911
(PID.TID 0000.0001)         System time:   0.0000000000000000
(PID.TID 0000.0001)     Wall clock time:   1.0060472488403320
(PID.TID 0000.0001)          No. starts:           8
(PID.TID 0000.0001)           No. stops:           8
(PID.TID 0000.0001)   Seconds in section "TRC_CORRECTION_STEP [FORWARD_STEP]":
(PID.TID 0000.0001)           User time:   0.0000000000000000
(PID.TID 0000.0001)         System time:   0.0000000000000000
(PID.TID 0000.0001)     Wall clock time:  1.36852264404296875E-004
(PID.TID 0000.0001)          No. starts:           8
(PID.TID 0000.0001)           No. stops:           8
(PID.TID 0000.0001)   Seconds in section "DO_STATEVARS_TAVE   [FORWARD_STEP]":
(PID.TID 0000.0001)           User time:   0.0000000000000000
(PID.TID 0000.0001)         System time:   0.0000000000000000
(PID.TID 0000.0001)     Wall clock time:  1.38521194458007813E-004
(PID.TID 0000.0001)          No. starts:           8
(PID.TID 0000.0001)           No. stops:           8
(PID.TID 0000.0001)   Seconds in section "MONITOR             [FORWARD_STEP]":
(PID.TID 0000.0001)           User time:  0.20999999999999908
(PID.TID 0000.0001)         System time:  2.00000000000000178E-002
(PID.TID 0000.0001)     Wall clock time:  0.22034215927124023
(PID.TID 0000.0001)          No. starts:           8
(PID.TID 0000.0001)           No. stops:           8
(PID.TID 0000.0001)   Seconds in section "COST_TILE           [FORWARD_STEP]":
(PID.TID 0000.0001)           User time:   0.0000000000000000
(PID.TID 0000.0001)         System time:   0.0000000000000000
(PID.TID 0000.0001)     Wall clock time:  1.31845474243164063E-004
(PID.TID 0000.0001)          No. starts:           8
(PID.TID 0000.0001)           No. stops:           8
(PID.TID 0000.0001)   Seconds in section "DO_THE_MODEL_IO     [FORWARD_STEP]":
(PID.TID 0000.0001)           User time:  0.62000000000000011
(PID.TID 0000.0001)         System time:  5.99999999999999423E-002
(PID.TID 0000.0001)     Wall clock time:   2.0863001346588135
(PID.TID 0000.0001)          No. starts:           8
(PID.TID 0000.0001)           No. stops:           8
(PID.TID 0000.0001)   Seconds in section "DO_WRITE_PICKUP     [FORWARD_STEP]":
(PID.TID 0000.0001)           User time:  0.34999999999999964
(PID.TID 0000.0001)         System time:  6.00000000000000533E-002
(PID.TID 0000.0001)     Wall clock time:   1.3543901443481445
(PID.TID 0000.0001)          No. starts:           8
(PID.TID 0000.0001)           No. stops:           8
(PID.TID 0000.0001)   Seconds in section "COST_AVERAGESFIELDS [THE_MAIN_LOOP]":
(PID.TID 0000.0001)           User time:  9.99999999999978684E-003
(PID.TID 0000.0001)         System time:   0.0000000000000000
(PID.TID 0000.0001)     Wall clock time:  6.81858062744140625E-002
(PID.TID 0000.0001)          No. starts:           1
(PID.TID 0000.0001)           No. stops:           1
(PID.TID 0000.0001)   Seconds in section "PROFILES_INLOOP    [THE_MAIN_LOOP]":
(PID.TID 0000.0001)           User time:   0.0000000000000000
(PID.TID 0000.0001)         System time:   0.0000000000000000
(PID.TID 0000.0001)     Wall clock time:  1.09910964965820313E-004
(PID.TID 0000.0001)          No. starts:           1
(PID.TID 0000.0001)           No. stops:           1
(PID.TID 0000.0001)   Seconds in section "ECCO_COST_DRIVER   [THE_MAIN_LOOP]":
(PID.TID 0000.0001)           User time:  0.16999999999999993
(PID.TID 0000.0001)         System time:  4.00000000000000355E-002
(PID.TID 0000.0001)     Wall clock time:  0.86188101768493652
(PID.TID 0000.0001)          No. starts:           1
(PID.TID 0000.0001)           No. stops:           1
(PID.TID 0000.0001)   Seconds in section "COST_GENCOST_ALL    [ECCO SPIN-DOWN]":
(PID.TID 0000.0001)           User time:  8.00000000000000711E-002
(PID.TID 0000.0001)         System time:  4.00000000000000355E-002
(PID.TID 0000.0001)     Wall clock time:  0.76421594619750977
(PID.TID 0000.0001)          No. starts:           1
(PID.TID 0000.0001)           No. stops:           1
(PID.TID 0000.0001)   Seconds in section "CTRL_COST_DRIVER [ECCO SPIN-DOWN]":
(PID.TID 0000.0001)           User time:  8.99999999999998579E-002
(PID.TID 0000.0001)         System time:   0.0000000000000000
(PID.TID 0000.0001)     Wall clock time:  9.76030826568603516E-002
(PID.TID 0000.0001)          No. starts:           1
(PID.TID 0000.0001)           No. stops:           1
(PID.TID 0000.0001)   Seconds in section "COST_FINAL         [ADJOINT SPIN-DOWN]":
(PID.TID 0000.0001)           User time:  1.00000000000006750E-002
(PID.TID 0000.0001)         System time:   0.0000000000000000
(PID.TID 0000.0001)     Wall clock time:  1.68609619140625000E-002
(PID.TID 0000.0001)          No. starts:           1
(PID.TID 0000.0001)           No. stops:           1
(PID.TID 0000.0001) // ======================================================
(PID.TID 0000.0001) // Tile <-> Tile communication statistics
(PID.TID 0000.0001) // ======================================================
(PID.TID 0000.0001) // o Tile number: 000001
(PID.TID 0000.0001) //         No. X exchanges =              0
(PID.TID 0000.0001) //            Max. X spins =              0
(PID.TID 0000.0001) //            Min. X spins =     1000000000
(PID.TID 0000.0001) //          Total. X spins =              0
(PID.TID 0000.0001) //            Avg. X spins =       0.00E+00
(PID.TID 0000.0001) //         No. Y exchanges =              0
(PID.TID 0000.0001) //            Max. Y spins =              0
(PID.TID 0000.0001) //            Min. Y spins =     1000000000
(PID.TID 0000.0001) //          Total. Y spins =              0
(PID.TID 0000.0001) //            Avg. Y spins =       0.00E+00
(PID.TID 0000.0001) // o Thread number: 000001
(PID.TID 0000.0001) //            No. barriers =          18046
(PID.TID 0000.0001) //      Max. barrier spins =              1
(PID.TID 0000.0001) //      Min. barrier spins =              1
(PID.TID 0000.0001) //     Total barrier spins =          18046
(PID.TID 0000.0001) //      Avg. barrier spins =       1.00E+00
PROGRAM MAIN: Execution ended Normally
